@<TRIPOS>MOLECULE
3R134
127   129    1
SMALL
USER_CHARGES


@<TRIPOS>ATOM
      1 CA         35.1627  -50.3359  -57.9853 C.3       0 UNK        -0.1968 
      2 C          34.3666  -49.8429  -56.7869 C.2       0 UNK         0.4852 
      3 O          34.5279  -50.3708  -55.6844 O.2       0 UNK        -0.5359 
      4 N          33.5228  -48.8179  -56.9819 N.am      1 UNK        -0.4300 
      5 CA         32.6489  -48.2464  -55.9486 C.3       1 UNK         0.0863 
      6 C6         31.5505  -47.3200  -56.5194 C.3       11 UNK        -0.0953 
      7 S7         32.1461  -45.9424  -57.5648 S.3       11 UNK        -0.2369 
      8 C8         32.5597  -44.6029  -56.3897 C.3       11 UNK         0.0226 
      9 C9         31.5439  -44.3802  -55.2722 C.ar      11 UNK        -0.0699 
     10 C10        31.9944  -44.2505  -53.9550 C.ar      11 UNK        -0.0804 
     11 C11        31.0918  -44.0614  -52.9064 C.ar      11 UNK        -0.0871 
     12 C12        29.7233  -43.9874  -53.1842 C.ar      11 UNK        -0.1008 
     13 C13        29.2548  -44.1378  -54.4926 C.ar      11 UNK        -0.0735 
     14 C14        30.1709  -44.3100  -55.5355 C.ar      11 UNK        -0.0945 
     15 C15        27.7570  -44.1823  -54.7574 C.3       11 UNK         0.0169 
     16 S16        27.0324  -42.5251  -54.9548 S.3       11 UNK        -0.2669 
     17 C17        27.3749  -42.1593  -56.7108 C.3       11 UNK        -0.0850 
     18 CA         26.1506  -42.4237  -57.6293 C.3       10 UNK         0.0855 
     19 C          26.4118  -41.8851  -59.0681 C.2       10 UNK         0.5543 
     20 N          26.4462  -42.7143  -60.1054 N.am      10 UNK        -0.7343 
     21 O          26.5827  -40.6816  -59.2456 O.2       10 UNK        -0.5027 
     22 N          25.7302  -43.8325  -57.5768 N.am      10 UNK        -0.4495 
     23 C          24.5314  -44.3024  -57.9433 C.2       10 UNK         0.4903 
     24 O          23.5848  -43.5821  -58.2641 O.2       10 UNK        -0.4860 
     25 CA         24.3730  -45.8401  -57.9603 C.3       9 UNK         0.0227 
     26 CB         23.2873  -46.3096  -58.9513 C.3       9 UNK        -0.1964 
     27 N          25.6313  -46.5700  -58.1916 N.am      9 UNK        -0.4231 
     28 C          26.4582  -46.4404  -59.2441 C.2       9 UNK         0.5014 
     29 O          26.2403  -45.6742  -60.1839 O.2       9 UNK        -0.5270 
     30 CA         27.7772  -47.2357  -59.2392 C.3       8 UNK         0.0284 
     31 CB         28.9802  -46.2798  -59.2911 C.3       8 UNK        -0.1977 
     32 N          27.9253  -48.1188  -58.0784 N.am      8 UNK        -0.4342 
     33 C          27.5224  -49.3948  -58.0428 C.2       8 UNK         0.5039 
     34 O          27.0024  -49.9763  -58.9959 O.2       8 UNK        -0.5547 
     35 CA         27.7177  -50.1537  -56.7173 C.3       7 UNK         0.0281 
     36 CB         29.0733  -50.8804  -56.7120 C.3       7 UNK        -0.1963 
     37 N          27.6035  -49.3454  -55.4953 N.am      7 UNK        -0.4444 
     38 C          26.5379  -48.6038  -55.1431 C.2       7 UNK         0.5104 
     39 O          25.5874  -48.3797  -55.8916 O.2       7 UNK        -0.5100 
     40 CA         26.5148  -48.0040  -53.7284 C.3       6 UNK         0.0396 
     41 CB         25.6976  -48.9226  -52.7971 C.3       6 UNK        -0.1801 
     42 N          27.8722  -47.8014  -53.2253 N.am      6 UNK        -0.4747 
     43 C          28.2566  -47.2552  -52.0697 C.2       6 UNK         0.5012 
     44 O          27.4746  -46.8353  -51.2152 O.2       6 UNK        -0.5003 
     45 CA         29.7856  -47.1641  -51.8511 C.3       5 UNK         0.0782 
     46 C46        30.1513  -46.2515  -50.6487 C.3       11 UNK        -0.0868 
     47 S47        31.8636  -45.6344  -50.7522 S.3       11 UNK        -0.2515 
     48 C48        31.5988  -43.9776  -51.4727 C.3       11 UNK         0.0199 
     49 N          30.4350  -48.4803  -51.7491 N.am      5 UNK        -0.4607 
     50 C          30.5666  -49.3829  -52.7312 C.2       4 UNK         0.5031 
     51 O          30.0882  -49.2504  -53.8619 O.2       4 UNK        -0.5119 
     52 CA         31.4349  -50.6046  -52.4141 C.3       4 UNK         0.0263 
     53 CB         31.2219  -51.7520  -53.4247 C.3       4 UNK        -0.1967 
     54 N          32.8382  -50.1898  -52.4095 N.am      4 UNK        -0.4237 
     55 C          33.8389  -50.8733  -51.8348 C.2       3 UNK         0.4908 
     56 O          33.6559  -51.8933  -51.1681 O.2       3 UNK        -0.5102 
     57 CA         35.2849  -50.3716  -52.0310 C.3       3 UNK         0.0241 
     58 CB         36.1943  -51.5052  -52.5396 C.3       3 UNK        -0.1971 
     59 N          35.3678  -49.2590  -52.9782 N.am      3 UNK        -0.4139 
     60 C          35.6757  -47.9913  -52.6643 C.2       2 UNK         0.5016 
     61 O          36.0064  -47.6252  -51.5360 O.2       2 UNK        -0.5319 
     62 CA         35.5819  -46.9399  -53.7926 C.3       2 UNK         0.0286 
     63 CB         36.9771  -46.6221  -54.3533 C.3       2 UNK        -0.1963 
     64 N          34.6998  -47.3324  -54.8980 N.am      2 UNK        -0.4790 
     65 C          33.3932  -47.6010  -54.7614 C.2       1 UNK         0.5024 
     66 O          32.7919  -47.4293  -53.7050 O.2       1 UNK        -0.4888 
     67 H67        34.9395  -51.3852  -58.1756 H         1 UNK         0.0892 
     68 H68        34.9331  -49.7706  -58.8883 H         1 UNK         0.0892 
     69 H69        36.2306  -50.2447  -57.7891 H         1 UNK         0.0892 
     70 H70        33.4429  -48.3985  -57.8980 H         1 UNK         0.3107 
     71 H71        32.1261  -49.1001  -55.5133 H         1 UNK         0.0773 
     72 H72        30.8906  -47.9178  -57.1487 H         1 UNK         0.0680 
     73 H73        30.9064  -46.9510  -55.7206 H         1 UNK         0.0680 
     74 H74        32.6651  -43.6740  -56.9511 H         1 UNK         0.0650 
     75 H75        33.5449  -44.8151  -55.9723 H         1 UNK         0.0650 
     76 H76        33.0513  -44.3221  -53.7375 H         1 UNK         0.1397 
     77 H77        29.0158  -43.8524  -52.3775 H         1 UNK         0.1363 
     78 H78        29.8192  -44.4252  -56.5499 H         1 UNK         0.1355 
     79 H79        27.5422  -44.7973  -55.6315 H         1 UNK         0.0707 
     80 H80        27.2590  -44.6753  -53.9209 H         1 UNK         0.0707 
     81 H81        27.6660  -41.1083  -56.7633 H         1 UNK         0.1034 
     82 H82        28.2441  -42.7220  -57.0524 H         1 UNK         0.1034 
     83 H83        25.3215  -41.8282  -57.2419 H         1 UNK         0.0482 
     84 H84        26.6129  -42.3388  -61.0251 H         1 UNK         0.3460 
     85 H85        26.3016  -43.7125  -59.9921 H         1 UNK         0.3460 
     86 H86        26.4456  -44.5003  -57.3414 H         1 UNK         0.2989 
     87 H87        24.0454  -46.1181  -56.9576 H         1 UNK         0.0559 
     88 H88        22.3153  -45.8823  -58.7020 H         1 UNK         0.0848 
     89 H89        23.1759  -47.3937  -58.9325 H         1 UNK         0.0848 
     90 H90        23.5195  -46.0137  -59.9749 H         1 UNK         0.0848 
     91 H91        25.8606  -47.2536  -57.4751 H         1 UNK         0.3144 
     92 H92        27.7891  -47.8316  -60.1544 H         1 UNK         0.0727 
     93 H93        29.0405  -45.6536  -58.4016 H         1 UNK         0.0790 
     94 H94        28.9217  -45.6146  -60.1538 H         1 UNK         0.0790 
     95 H95        29.9151  -46.8325  -59.3810 H         1 UNK         0.0790 
     96 H96        28.3424  -47.7265  -57.2475 H         1 UNK         0.3215 
     97 H97        26.9306  -50.9093  -56.6704 H         1 UNK         0.0863 
     98 H98        29.1645  -51.5422  -55.8509 H         1 UNK         0.0808 
     99 H99        29.9085  -50.1800  -56.6833 H         1 UNK         0.0808 
    100 H100       29.1932  -51.4962  -57.6046 H         1 UNK         0.0808 
    101 H101       28.3530  -49.4783  -54.8248 H         1 UNK         0.3118 
    102 H102       26.0258  -47.0300  -53.7884 H         1 UNK         0.0546 
    103 H103       26.2012  -49.8753  -52.6295 H         1 UNK         0.0828 
    104 H104       24.7181  -49.1422  -53.2246 H         1 UNK         0.0828 
    105 H105       25.5187  -48.4626  -51.8259 H         1 UNK         0.0828 
    106 H106       28.6263  -48.1514  -53.8103 H         1 UNK         0.3005 
    107 H107       30.1828  -46.6974  -52.7553 H         1 UNK         0.1257 
    108 H108       30.0245  -46.7882  -49.7071 H         1 UNK         0.0775 
    109 H109       29.4905  -45.3858  -50.5810 H         1 UNK         0.0775 
    110 H110       30.9050  -43.4102  -50.8503 H         1 UNK         0.0840 
    111 H111       32.5418  -43.4294  -51.4493 H         1 UNK         0.0840 
    112 H112       30.8838  -48.6702  -50.8652 H         1 UNK         0.2987 
    113 H113       31.1568  -50.9597  -51.4195 H         1 UNK         0.0785 
    114 H114       30.1688  -52.0293  -53.4847 H         1 UNK         0.0798 
    115 H115       31.7737  -52.6466  -53.1365 H         1 UNK         0.0798 
    116 H116       31.5458  -51.4703  -54.4277 H         1 UNK         0.0798 
    117 H117       33.0323  -49.3048  -52.8673 H         1 UNK         0.3079 
    118 H118       35.6449  -50.0631  -51.0475 H         1 UNK         0.0794 
    119 H119       37.2237  -51.1651  -52.6540 H         1 UNK         0.0786 
    120 H120       35.8580  -51.8860  -53.5051 H         1 UNK         0.0786 
    121 H121       36.2089  -52.3444  -51.8429 H         1 UNK         0.0786 
    122 H122       35.1177  -49.4801  -53.9385 H         1 UNK         0.3032 
    123 H123       35.1711  -46.0309  -53.3471 H         1 UNK         0.1094 
    124 H124       37.4285  -47.4933  -54.8299 H         1 UNK         0.0794 
    125 H125       36.9365  -45.8180  -55.0883 H         1 UNK         0.0794 
    126 H126       37.6520  -46.2987  -53.5594 H         1 UNK         0.0794 
    127 H127       35.1330  -47.5074  -55.7932 H         1 UNK         0.3016 
@<TRIPOS>BOND
     1    1    2 1    
     2    1   67 1    
     3    1   68 1    
     4    1   69 1    
     5    2    3 2    
     6    2    4 am   BACKBONE|DICT|INTERRES
     7    4    5 1    
     8    4   70 1    
     9    5    6 1    
    10    5   65 1    
    11    5   71 1    
    12    6    7 1    
    13    6   72 1    
    14    6   73 1    
    15    7    8 1    
    16    8    9 1    
    17    8   74 1    
    18    8   75 1    
    19    9   10 ar   
    20    9   14 ar   
    21   10   11 ar   
    22   10   76 1    
    23   11   12 ar   
    24   11   48 1    
    25   12   13 ar   
    26   12   77 1    
    27   13   14 ar   
    28   13   15 1    
    29   14   78 1    
    30   15   16 1    
    31   15   79 1    
    32   15   80 1    
    33   16   17 1    
    34   17   18 1    
    35   17   81 1    
    36   17   82 1    
    37   18   19 1    
    38   18   22 1    
    39   18   83 1    
    40   19   20 am   BACKBONE|DICT|INTERRES
    41   19   21 2    
    42   20   84 1    
    43   20   85 1    
    44   22   23 am   BACKBONE|DICT|INTERRES
    45   22   86 1    
    46   23   24 2    
    47   23   25 1    
    48   25   26 1    
    49   25   27 1    
    50   25   87 1    
    51   26   88 1    
    52   26   89 1    
    53   26   90 1    
    54   27   28 am   BACKBONE|DICT|INTERRES
    55   27   91 1    
    56   28   29 2    
    57   28   30 1    
    58   30   31 1    
    59   30   32 1    
    60   30   92 1    
    61   31   93 1    
    62   31   94 1    
    63   31   95 1    
    64   32   33 am   BACKBONE|DICT|INTERRES
    65   32   96 1    
    66   33   34 2    
    67   33   35 1    
    68   35   36 1    
    69   35   37 1    
    70   35   97 1    
    71   36   98 1    
    72   36   99 1    
    73   36  100 1    
    74   37   38 am   BACKBONE|DICT|INTERRES
    75   37  101 1    
    76   38   39 2    
    77   38   40 1    
    78   40   41 1    
    79   40   42 1    
    80   40  102 1    
    81   41  103 1    
    82   41  104 1    
    83   41  105 1    
    84   42   43 am   BACKBONE|DICT|INTERRES
    85   42  106 1    
    86   43   44 2    
    87   43   45 1    
    88   45   46 1    
    89   45   49 1    
    90   45  107 1    
    91   46   47 1    
    92   46  108 1    
    93   46  109 1    
    94   47   48 1    
    95   48  110 1    
    96   48  111 1    
    97   49   50 am   BACKBONE|DICT|INTERRES
    98   49  112 1    
    99   50   51 2    
   100   50   52 1    
   101   52   53 1    
   102   52   54 1    
   103   52  113 1    
   104   53  114 1    
   105   53  115 1    
   106   53  116 1    
   107   54   55 am   BACKBONE|DICT|INTERRES
   108   54  117 1    
   109   55   56 2    
   110   55   57 1    
   111   57   58 1    
   112   57   59 1    
   113   57  118 1    
   114   58  119 1    
   115   58  120 1    
   116   58  121 1    
   117   59   60 am   BACKBONE|DICT|INTERRES
   118   59  122 1    
   119   60   61 2    
   120   60   62 1    
   121   62   63 1    
   122   62   64 1    
   123   62  123 1    
   124   63  124 1    
   125   63  125 1    
   126   63  126 1    
   127   64   65 am   BACKBONE|DICT|INTERRES
   128   64  127 1    
   129   65   66 2    
@<TRIPOS>SUBSTRUCTURE
     1 UNK         1 GROUP             0       ****    0 ROOT    
