@<TRIPOS>MOLECULE
3R134
127   129    1
SMALL
USER_CHARGES


@<TRIPOS>ATOM
      1 CA         31.7824  -45.6719  -48.8093 C.3       0 UNK        -0.1968 
      2 C          32.1831  -46.2869  -50.1415 C.2       0 UNK         0.4852 
      3 O          33.1387  -47.0625  -50.1911 O.2       0 UNK        -0.5359 
      4 N          31.4514  -45.9564  -51.2166 N.am      1 UNK        -0.4300 
      5 CA         31.6868  -46.4032  -52.5988 C.3       1 UNK         0.0863 
      6 C6         30.6270  -45.8477  -53.5767 C.3       11 UNK        -0.0953 
      7 S7         30.4854  -44.0300  -53.5606 S.3       11 UNK        -0.2369 
      8 C8         31.4693  -43.5646  -55.0216 C.3       11 UNK         0.0226 
      9 C9         30.8962  -44.1236  -56.3178 C.ar      11 UNK        -0.0699 
     10 C10        31.6282  -45.0477  -57.0696 C.ar      11 UNK        -0.0804 
     11 C11        31.1121  -45.5619  -58.2630 C.ar      11 UNK        -0.0871 
     12 C12        29.8550  -45.1402  -58.7073 C.ar      11 UNK        -0.1008 
     13 C13        29.1146  -44.2162  -57.9643 C.ar      11 UNK        -0.0735 
     14 C14        29.6406  -43.7105  -56.7719 C.ar      11 UNK        -0.0945 
     15 C15        27.7519  -43.7497  -58.4474 C.3       11 UNK         0.0169 
     16 S16        27.8744  -42.1037  -59.2054 S.3       11 UNK        -0.2669 
     17 C17        26.1271  -41.5813  -59.2404 C.3       11 UNK        -0.0850 
     18 CA         25.8040  -40.5690  -58.1007 C.3       10 UNK         0.0855 
     19 C          24.5115  -39.7328  -58.3662 C.2       10 UNK         0.5543 
     20 N          23.8239  -39.2455  -57.3403 N.am      10 UNK        -0.7343 
     21 O          24.1418  -39.4892  -59.5126 O.2       10 UNK        -0.5027 
     22 N          25.8860  -41.1781  -56.7560 N.am      10 UNK        -0.4495 
     23 C          25.0344  -42.0817  -56.2502 C.2       10 UNK         0.4903 
     24 O          24.0721  -42.5392  -56.8685 O.2       10 UNK        -0.4860 
     25 CA         25.3041  -42.5267  -54.7993 C.3       9 UNK         0.0227 
     26 CB         23.9949  -42.7552  -54.0145 C.3       9 UNK        -0.1964 
     27 N          26.1802  -43.7034  -54.7064 N.am      9 UNK        -0.4231 
     28 C          25.9655  -44.9320  -55.2013 C.2       9 UNK         0.5014 
     29 O          24.9744  -45.2705  -55.8539 O.2       9 UNK        -0.5270 
     30 CA         27.0333  -45.9842  -54.8826 C.3       8 UNK         0.0284 
     31 CB         26.8405  -46.5496  -53.4613 C.3       8 UNK        -0.1977 
     32 N          26.9127  -47.0532  -55.8670 N.am      8 UNK        -0.4342 
     33 C          27.8674  -47.9249  -56.2005 C.2       8 UNK         0.5039 
     34 O          28.9710  -47.9768  -55.6547 O.2       8 UNK        -0.5547 
     35 CA         27.5226  -48.8902  -57.3445 C.3       7 UNK         0.0281 
     36 CB         27.4255  -48.1364  -58.6833 C.3       7 UNK        -0.1963 
     37 N          28.5630  -49.9087  -57.4673 N.am      7 UNK        -0.4444 
     38 C          28.4148  -51.2205  -57.2484 C.2       7 UNK         0.5104 
     39 O          27.3444  -51.7473  -56.9420 O.2       7 UNK        -0.5100 
     40 CA         29.6638  -52.1098  -57.4216 C.3       6 UNK         0.0396 
     41 CB         29.5383  -52.9666  -58.6922 C.3       6 UNK        -0.1801 
     42 N          30.9070  -51.3358  -57.4948 N.am      6 UNK        -0.4747 
     43 C          31.5729  -50.8672  -56.4315 C.2       6 UNK         0.5012 
     44 O          31.2756  -51.1442  -55.2682 O.2       6 UNK        -0.5003 
     45 CA         32.7355  -49.8998  -56.7297 C.3       5 UNK         0.0782 
     46 C46        32.2234  -48.4642  -57.0106 C.3       11 UNK        -0.0868 
     47 S47        31.4881  -48.2780  -58.6720 S.3       11 UNK        -0.2515 
     48 C48        31.9195  -46.5582  -59.0828 C.3       11 UNK         0.0199 
     49 N          33.6717  -49.8893  -55.6061 N.am      5 UNK        -0.4607 
     50 C          34.7863  -50.6234  -55.5309 C.2       4 UNK         0.5031 
     51 O          35.1473  -51.4038  -56.4126 O.2       4 UNK        -0.5119 
     52 CA         35.6643  -50.4544  -54.2832 C.3       4 UNK         0.0263 
     53 CB         36.5657  -49.2147  -54.4174 C.3       4 UNK        -0.1967 
     54 N          34.8851  -50.3615  -53.0448 N.am      4 UNK        -0.4237 
     55 C          35.2081  -50.9901  -51.9035 C.2       3 UNK         0.4908 
     56 O          36.1825  -51.7358  -51.7892 O.2       3 UNK        -0.5102 
     57 CA         34.3272  -50.7480  -50.6614 C.3       3 UNK         0.0241 
     58 CB         35.0455  -49.8176  -49.6703 C.3       3 UNK        -0.1971 
     59 N          33.0113  -50.1892  -50.9728 N.am      3 UNK        -0.4139 
     60 C          32.0142  -50.8744  -51.5517 C.2       2 UNK         0.5016 
     61 O          32.0707  -52.0820  -51.7866 O.2       2 UNK        -0.5319 
     62 CA         30.7428  -50.0952  -51.9434 C.3       2 UNK         0.0286 
     63 CB         29.5822  -50.4503  -50.9994 C.3       2 UNK        -0.1963 
     64 N          30.8889  -48.6362  -51.9789 N.am      2 UNK        -0.4790 
     65 C          31.7432  -47.9370  -52.7422 C.2       1 UNK         0.5024 
     66 O          32.5775  -48.4476  -53.4909 O.2       1 UNK        -0.4888 
     67 H67        30.9210  -45.0113  -48.9064 H         1 UNK         0.0892 
     68 H68        31.5307  -46.4558  -48.0955 H         1 UNK         0.0892 
     69 H69        32.6100  -45.0923  -48.4012 H         1 UNK         0.0892 
     70 H70        30.6904  -45.3009  -51.1079 H         1 UNK         0.3107 
     71 H71        32.6639  -46.0176  -52.8967 H         1 UNK         0.0773 
     72 H72        29.6462  -46.2487  -53.3238 H         1 UNK         0.0680 
     73 H73        30.8279  -46.1900  -54.5928 H         1 UNK         0.0680 
     74 H74        31.5048  -42.4765  -55.0892 H         1 UNK         0.0650 
     75 H75        32.4978  -43.8971  -54.8734 H         1 UNK         0.0650 
     76 H76        32.6016  -45.3680  -56.7251 H         1 UNK         0.1397 
     77 H77        29.4556  -45.5285  -59.6341 H         1 UNK         0.1363 
     78 H78        29.0743  -42.9895  -56.1987 H         1 UNK         0.1355 
     79 H79        27.3307  -44.4530  -59.1675 H         1 UNK         0.0707 
     80 H80        27.0618  -43.7180  -57.6063 H         1 UNK         0.0707 
     81 H81        25.4644  -42.4471  -59.2004 H         1 UNK         0.1034 
     82 H82        25.9641  -41.1293  -60.2203 H         1 UNK         0.1034 
     83 H83        26.5928  -39.8158  -58.1163 H         1 UNK         0.0482 
     84 H84        22.9968  -38.6969  -57.5159 H         1 UNK         0.3460 
     85 H85        24.1215  -39.4233  -56.3947 H         1 UNK         0.3460 
     86 H86        26.6419  -40.8432  -56.1761 H         1 UNK         0.2989 
     87 H87        25.8341  -41.7130  -54.3012 H         1 UNK         0.0559 
     88 H88        23.3693  -41.8620  -54.0334 H         1 UNK         0.0848 
     89 H89        24.1947  -42.9891  -52.9689 H         1 UNK         0.0848 
     90 H90        23.4036  -43.5711  -54.4317 H         1 UNK         0.0848 
     91 H91        27.0386  -43.5540  -54.1935 H         1 UNK         0.3144 
     92 H92        28.0191  -45.5252  -54.9789 H         1 UNK         0.0727 
     93 H93        27.5473  -47.3514  -53.2475 H         1 UNK         0.0790 
     94 H94        25.8359  -46.9515  -53.3234 H         1 UNK         0.0790 
     95 H95        26.9902  -45.7757  -52.7077 H         1 UNK         0.0790 
     96 H96        26.0343  -47.0315  -56.3730 H         1 UNK         0.3215 
     97 H97        26.5574  -49.3497  -57.1211 H         1 UNK         0.0863 
     98 H98        27.1730  -48.8139  -59.4992 H         1 UNK         0.0808 
     99 H99        28.3670  -47.6486  -58.9364 H         1 UNK         0.0808 
    100 H100       26.6547  -47.3655  -58.6554 H         1 UNK         0.0808 
    101 H101       29.4974  -49.5514  -57.6137 H         1 UNK         0.3118 
    102 H102       29.7105  -52.7828  -56.5627 H         1 UNK         0.0546 
    103 H103       28.6409  -53.5860  -58.6584 H         1 UNK         0.0828 
    104 H104       30.3888  -53.6394  -58.8034 H         1 UNK         0.0828 
    105 H105       29.4751  -52.3516  -59.5907 H         1 UNK         0.0828 
    106 H106       31.2069  -51.0546  -58.4186 H         1 UNK         0.3005 
    107 H107       33.2577  -50.2603  -57.6194 H         1 UNK         0.1257 
    108 H108       31.5074  -48.1382  -56.2541 H         1 UNK         0.0775 
    109 H109       33.0613  -47.7692  -56.9406 H         1 UNK         0.0775 
    110 H110       32.9895  -46.3994  -58.9404 H         1 UNK         0.0840 
    111 H111       31.7315  -46.3954  -60.1451 H         1 UNK         0.0840 
    112 H112       33.3818  -49.3150  -54.8181 H         1 UNK         0.2987 
    113 H113       36.3092  -51.3353  -54.2478 H         1 UNK         0.0785 
    114 H114       37.2716  -49.1486  -53.5893 H         1 UNK         0.0798 
    115 H115       35.9830  -48.2928  -54.4350 H         1 UNK         0.0798 
    116 H116       37.1494  -49.2520  -55.3382 H         1 UNK         0.0798 
    117 H117       34.0551  -49.7786  -53.0645 H         1 UNK         0.3079 
    118 H118       34.1797  -51.7141  -50.1739 H         1 UNK         0.0794 
    119 H119       36.0043  -50.2378  -49.3634 H         1 UNK         0.0786 
    120 H120       34.4546  -49.6655  -48.7668 H         1 UNK         0.0786 
    121 H121       35.2443  -48.8389  -50.1091 H         1 UNK         0.0786 
    122 H122       32.8878  -49.1968  -50.8043 H         1 UNK         0.3032 
    123 H123       30.4721  -50.4165  -52.9503 H         1 UNK         0.1094 
    124 H124       28.6491  -49.9903  -51.3258 H         1 UNK         0.0794 
    125 H125       29.4154  -51.5282  -50.9727 H         1 UNK         0.0794 
    126 H126       29.7802  -50.1257  -49.9771 H         1 UNK         0.0794 
    127 H127       30.2693  -48.1128  -51.3777 H         1 UNK         0.3016 
@<TRIPOS>BOND
     1    1    2 1    
     2    1   67 1    
     3    1   68 1    
     4    1   69 1    
     5    2    3 2    
     6    2    4 am   BACKBONE|DICT|INTERRES
     7    4    5 1    
     8    4   70 1    
     9    5    6 1    
    10    5   65 1    
    11    5   71 1    
    12    6    7 1    
    13    6   72 1    
    14    6   73 1    
    15    7    8 1    
    16    8    9 1    
    17    8   74 1    
    18    8   75 1    
    19    9   10 ar   
    20    9   14 ar   
    21   10   11 ar   
    22   10   76 1    
    23   11   12 ar   
    24   11   48 1    
    25   12   13 ar   
    26   12   77 1    
    27   13   14 ar   
    28   13   15 1    
    29   14   78 1    
    30   15   16 1    
    31   15   79 1    
    32   15   80 1    
    33   16   17 1    
    34   17   18 1    
    35   17   81 1    
    36   17   82 1    
    37   18   19 1    
    38   18   22 1    
    39   18   83 1    
    40   19   20 am   BACKBONE|DICT|INTERRES
    41   19   21 2    
    42   20   84 1    
    43   20   85 1    
    44   22   23 am   BACKBONE|DICT|INTERRES
    45   22   86 1    
    46   23   24 2    
    47   23   25 1    
    48   25   26 1    
    49   25   27 1    
    50   25   87 1    
    51   26   88 1    
    52   26   89 1    
    53   26   90 1    
    54   27   28 am   BACKBONE|DICT|INTERRES
    55   27   91 1    
    56   28   29 2    
    57   28   30 1    
    58   30   31 1    
    59   30   32 1    
    60   30   92 1    
    61   31   93 1    
    62   31   94 1    
    63   31   95 1    
    64   32   33 am   BACKBONE|DICT|INTERRES
    65   32   96 1    
    66   33   34 2    
    67   33   35 1    
    68   35   36 1    
    69   35   37 1    
    70   35   97 1    
    71   36   98 1    
    72   36   99 1    
    73   36  100 1    
    74   37   38 am   BACKBONE|DICT|INTERRES
    75   37  101 1    
    76   38   39 2    
    77   38   40 1    
    78   40   41 1    
    79   40   42 1    
    80   40  102 1    
    81   41  103 1    
    82   41  104 1    
    83   41  105 1    
    84   42   43 am   BACKBONE|DICT|INTERRES
    85   42  106 1    
    86   43   44 2    
    87   43   45 1    
    88   45   46 1    
    89   45   49 1    
    90   45  107 1    
    91   46   47 1    
    92   46  108 1    
    93   46  109 1    
    94   47   48 1    
    95   48  110 1    
    96   48  111 1    
    97   49   50 am   BACKBONE|DICT|INTERRES
    98   49  112 1    
    99   50   51 2    
   100   50   52 1    
   101   52   53 1    
   102   52   54 1    
   103   52  113 1    
   104   53  114 1    
   105   53  115 1    
   106   53  116 1    
   107   54   55 am   BACKBONE|DICT|INTERRES
   108   54  117 1    
   109   55   56 2    
   110   55   57 1    
   111   57   58 1    
   112   57   59 1    
   113   57  118 1    
   114   58  119 1    
   115   58  120 1    
   116   58  121 1    
   117   59   60 am   BACKBONE|DICT|INTERRES
   118   59  122 1    
   119   60   61 2    
   120   60   62 1    
   121   62   63 1    
   122   62   64 1    
   123   62  123 1    
   124   63  124 1    
   125   63  125 1    
   126   63  126 1    
   127   64   65 am   BACKBONE|DICT|INTERRES
   128   64  127 1    
   129   65   66 2    
@<TRIPOS>SUBSTRUCTURE
     1 UNK         1 GROUP             0       ****    0 ROOT    
