@<TRIPOS>MOLECULE
3R134
127   129    1
SMALL
USER_CHARGES


@<TRIPOS>ATOM
      1 CA         33.7983  -44.1353  -49.5734 C.3       0 UNK        -0.1968 
      2 C          35.1161  -44.9037  -49.4903 C.2       0 UNK         0.4852 
      3 O          35.7335  -44.9113  -48.4268 O.2       0 UNK        -0.5359 
      4 N          35.5974  -45.5656  -50.5562 N.am      1 UNK        -0.4300 
      5 CA         35.0276  -45.7013  -51.9076 C.3       1 UNK         0.0863 
      6 C6         34.7837  -44.3348  -52.6095 C.3       11 UNK        -0.0953 
      7 S7         35.0962  -44.3750  -54.4055 S.3       11 UNK        -0.2369 
      8 C8         34.0556  -42.9992  -54.9922 C.3       11 UNK         0.0226 
      9 C9         32.5996  -43.4046  -55.1858 C.ar      11 UNK        -0.0699 
     10 C10        31.6778  -43.2587  -54.1432 C.ar      11 UNK        -0.0804 
     11 C11        30.3352  -43.6041  -54.3234 C.ar      11 UNK        -0.0871 
     12 C12        29.9113  -44.0490  -55.5777 C.ar      11 UNK        -0.1008 
     13 C13        30.8259  -44.2481  -56.6133 C.ar      11 UNK        -0.0735 
     14 C14        32.1686  -43.9115  -56.4171 C.ar      11 UNK        -0.0945 
     15 C15        30.3557  -44.8758  -57.9159 C.3       11 UNK         0.0169 
     16 S16        29.5971  -43.6442  -59.0126 S.3       11 UNK        -0.2669 
     17 C17        28.5847  -44.7144  -60.0935 C.3       11 UNK        -0.0850 
     18 CA         27.0729  -44.6392  -59.7392 C.3       10 UNK         0.0855 
     19 C          26.1550  -45.2208  -60.8548 C.2       10 UNK         0.5543 
     20 N          25.0262  -45.8421  -60.5323 N.am      10 UNK        -0.7343 
     21 O          26.4505  -45.0831  -62.0397 O.2       10 UNK        -0.5027 
     22 N          26.7908  -45.2348  -58.4230 N.am      10 UNK        -0.4495 
     23 C          26.3508  -44.5676  -57.3479 C.2       10 UNK         0.4903 
     24 O          26.2220  -43.3429  -57.3095 O.2       10 UNK        -0.4860 
     25 CA         25.9875  -45.4040  -56.0998 C.3       9 UNK         0.0227 
     26 CB         24.9692  -44.6946  -55.1837 C.3       9 UNK        -0.1964 
     27 N          25.5450  -46.7733  -56.3909 N.am      9 UNK        -0.4231 
     28 C          24.5448  -47.1447  -57.2053 C.2       9 UNK         0.5014 
     29 O          23.8251  -46.3458  -57.8088 O.2       9 UNK        -0.5270 
     30 CA         24.3470  -48.6597  -57.4219 C.3       8 UNK         0.0284 
     31 CB         23.5170  -48.9680  -58.6860 C.3       8 UNK        -0.1977 
     32 N          25.5920  -49.4398  -57.4511 N.am      8 UNK        -0.4342 
     33 C          26.6912  -49.2239  -58.1897 C.2       8 UNK         0.5039 
     34 O          26.8638  -48.2306  -58.8999 O.2       8 UNK        -0.5547 
     35 CA         27.7906  -50.2970  -58.0736 C.3       7 UNK         0.0281 
     36 CB         28.9468  -50.0745  -59.0666 C.3       7 UNK        -0.1963 
     37 N          28.3155  -50.3496  -56.7063 N.am      7 UNK        -0.4444 
     38 C          27.7185  -50.9858  -55.6854 C.2       7 UNK         0.5104 
     39 O          26.6996  -51.6646  -55.8237 O.2       7 UNK        -0.5100 
     40 CA         28.3013  -50.8047  -54.2685 C.3       6 UNK         0.0396 
     41 CB         29.2196  -51.9850  -53.9167 C.3       6 UNK        -0.1801 
     42 N          29.0320  -49.5507  -54.0695 N.am      6 UNK        -0.4747 
     43 C          28.5402  -48.3183  -54.2646 C.2       6 UNK         0.5012 
     44 O          27.3608  -48.0945  -54.5424 O.2       6 UNK        -0.5003 
     45 CA         29.5506  -47.1514  -54.2444 C.3       5 UNK         0.0782 
     46 C46        29.5431  -46.3595  -52.9088 C.3       11 UNK        -0.0868 
     47 S47        28.3196  -45.0023  -52.9329 S.3       11 UNK        -0.2515 
     48 C48        29.3564  -43.5086  -53.1553 C.3       11 UNK         0.0199 
     49 N          30.9062  -47.5434  -54.6511 N.am      5 UNK        -0.4607 
     50 C          31.2263  -48.0293  -55.8598 C.2       4 UNK         0.5031 
     51 O          30.4047  -48.2149  -56.7544 O.2       4 UNK        -0.5119 
     52 CA         32.6918  -48.4116  -56.1018 C.3       4 UNK         0.0263 
     53 CB         33.5274  -47.1732  -56.4516 C.3       4 UNK        -0.1967 
     54 N          33.2550  -49.0776  -54.9286 N.am      4 UNK        -0.4237 
     55 C          33.1314  -50.3896  -54.6807 C.2       3 UNK         0.4908 
     56 O          32.6260  -51.1915  -55.4662 O.2       3 UNK        -0.5102 
     57 CA         33.6403  -50.8981  -53.3194 C.3       3 UNK         0.0241 
     58 CB         35.1066  -51.3470  -53.4252 C.3       3 UNK        -0.1971 
     59 N          33.5095  -49.9112  -52.2439 N.am      3 UNK        -0.4139 
     60 C          32.3434  -49.4397  -51.7801 C.2       2 UNK         0.5016 
     61 O          31.2433  -49.8173  -52.1800 O.2       2 UNK        -0.5319 
     62 CA         32.4163  -48.3180  -50.7310 C.3       2 UNK         0.0286 
     63 CB         32.4195  -48.9055  -49.3114 C.3       2 UNK        -0.1963 
     64 N          33.5678  -47.4207  -50.8908 N.am      2 UNK        -0.4790 
     65 C          33.8098  -46.6560  -51.9679 C.2       1 UNK         0.5024 
     66 O          33.1162  -46.7046  -52.9836 O.2       1 UNK        -0.4888 
     67 H67        33.4073  -43.9508  -48.5731 H         1 UNK         0.0892 
     68 H68        33.0312  -44.6785  -50.1215 H         1 UNK         0.0892 
     69 H69        33.9534  -43.1682  -50.0503 H         1 UNK         0.0892 
     70 H70        36.4773  -46.0489  -50.4353 H         1 UNK         0.3107 
     71 H71        35.8087  -46.2196  -52.4659 H         1 UNK         0.0773 
     72 H72        33.7759  -43.9739  -52.4138 H         1 UNK         0.0680 
     73 H73        35.4553  -43.5765  -52.2041 H         1 UNK         0.0680 
     74 H74        34.1296  -42.1608  -54.2977 H         1 UNK         0.0650 
     75 H75        34.4613  -42.6405  -55.9393 H         1 UNK         0.0650 
     76 H76        32.0048  -42.8750  -53.1876 H         1 UNK         0.1397 
     77 H77        28.8711  -44.2905  -55.7347 H         1 UNK         0.1363 
     78 H78        32.8802  -44.0502  -57.2194 H         1 UNK         0.1355 
     79 H79        31.1845  -45.3609  -58.4333 H         1 UNK         0.0707 
     80 H80        29.6329  -45.6622  -57.6917 H         1 UNK         0.0707 
     81 H81        28.9384  -45.7465  -60.0554 H         1 UNK         0.1034 
     82 H82        28.7591  -44.3767  -61.1166 H         1 UNK         0.1034 
     83 H83        26.8050  -43.5816  -59.7210 H         1 UNK         0.0482 
     84 H84        24.7414  -45.9412  -59.5642 H         1 UNK         0.3460 
     85 H85        24.4403  -46.2047  -61.2667 H         1 UNK         0.3460 
     86 H86        26.8206  -46.2510  -58.4013 H         1 UNK         0.2989 
     87 H87        26.9123  -45.5118  -55.5355 H         1 UNK         0.0559 
     88 H88        24.7595  -45.2868  -54.2930 H         1 UNK         0.0848 
     89 H89        24.0249  -44.5108  -55.6972 H         1 UNK         0.0848 
     90 H90        25.3508  -43.7310  -54.8438 H         1 UNK         0.0848 
     91 H91        26.0882  -47.4989  -55.9297 H         1 UNK         0.3144 
     92 H92        23.7824  -49.0145  -56.5585 H         1 UNK         0.0727 
     93 H93        23.3458  -50.0386  -58.7973 H         1 UNK         0.0790 
     94 H94        24.0159  -48.6132  -59.5887 H         1 UNK         0.0790 
     95 H95        22.5377  -48.4894  -58.6433 H         1 UNK         0.0790 
     96 H96        25.6089  -50.2630  -56.8560 H         1 UNK         0.3215 
     97 H97        27.3356  -51.2596  -58.3179 H         1 UNK         0.0863 
     98 H98        29.7256  -50.8277  -58.9478 H         1 UNK         0.0808 
     99 H99        29.4064  -49.0936  -58.9470 H         1 UNK         0.0808 
    100 H100       28.5883  -50.1357  -60.0947 H         1 UNK         0.0808 
    101 H101       29.1088  -49.7447  -56.5147 H         1 UNK         0.3118 
    102 H102       27.4624  -50.8040  -53.5700 H         1 UNK         0.0546 
    103 H103       28.6984  -52.9361  -54.0336 H         1 UNK         0.0828 
    104 H104       29.5603  -51.9290  -52.8826 H         1 UNK         0.0828 
    105 H105       30.1010  -52.0140  -54.5584 H         1 UNK         0.0828 
    106 H106       29.9927  -49.6334  -53.7495 H         1 UNK         0.3005 
    107 H107       29.2049  -46.4945  -55.0403 H         1 UNK         0.1257 
    108 H108       30.5232  -45.9231  -52.7112 H         1 UNK         0.0775 
    109 H109       29.3401  -47.0119  -52.0574 H         1 UNK         0.0775 
    110 H110       28.7045  -42.6483  -53.3118 H         1 UNK         0.0840 
    111 H111       29.8910  -43.3239  -52.2222 H         1 UNK         0.0840 
    112 H112       31.6523  -47.3587  -53.9868 H         1 UNK         0.2987 
    113 H113       32.7277  -49.0917  -56.9560 H         1 UNK         0.0785 
    114 H114       33.4804  -46.4248  -55.6616 H         1 UNK         0.0798 
    115 H115       33.1620  -46.7045  -57.3658 H         1 UNK         0.0798 
    116 H116       34.5748  -47.4283  -56.6122 H         1 UNK         0.0798 
    117 H117       33.6368  -48.4765  -54.2104 H         1 UNK         0.3079 
    118 H118       33.0346  -51.7659  -53.0487 H         1 UNK         0.0794 
    119 H119       35.7682  -50.5156  -53.6721 H         1 UNK         0.0786 
    120 H120       35.2277  -52.1018  -54.2037 H         1 UNK         0.0786 
    121 H121       35.4551  -51.7892  -52.4917 H         1 UNK         0.0786 
    122 H122       34.3628  -49.5436  -51.8492 H         1 UNK         0.3032 
    123 H123       31.5130  -47.7153  -50.8469 H         1 UNK         0.1094 
    124 H124       33.3167  -49.4949  -49.1186 H         1 UNK         0.0794 
    125 H125       32.3633  -48.1208  -48.5565 H         1 UNK         0.0794 
    126 H126       31.5602  -49.5604  -49.1585 H         1 UNK         0.0794 
    127 H127       34.1957  -47.3441  -50.1030 H         1 UNK         0.3016 
@<TRIPOS>BOND
     1    1    2 1    
     2    1   67 1    
     3    1   68 1    
     4    1   69 1    
     5    2    3 2    
     6    2    4 am   BACKBONE|DICT|INTERRES
     7    4    5 1    
     8    4   70 1    
     9    5    6 1    
    10    5   65 1    
    11    5   71 1    
    12    6    7 1    
    13    6   72 1    
    14    6   73 1    
    15    7    8 1    
    16    8    9 1    
    17    8   74 1    
    18    8   75 1    
    19    9   10 ar   
    20    9   14 ar   
    21   10   11 ar   
    22   10   76 1    
    23   11   12 ar   
    24   11   48 1    
    25   12   13 ar   
    26   12   77 1    
    27   13   14 ar   
    28   13   15 1    
    29   14   78 1    
    30   15   16 1    
    31   15   79 1    
    32   15   80 1    
    33   16   17 1    
    34   17   18 1    
    35   17   81 1    
    36   17   82 1    
    37   18   19 1    
    38   18   22 1    
    39   18   83 1    
    40   19   20 am   BACKBONE|DICT|INTERRES
    41   19   21 2    
    42   20   84 1    
    43   20   85 1    
    44   22   23 am   BACKBONE|DICT|INTERRES
    45   22   86 1    
    46   23   24 2    
    47   23   25 1    
    48   25   26 1    
    49   25   27 1    
    50   25   87 1    
    51   26   88 1    
    52   26   89 1    
    53   26   90 1    
    54   27   28 am   BACKBONE|DICT|INTERRES
    55   27   91 1    
    56   28   29 2    
    57   28   30 1    
    58   30   31 1    
    59   30   32 1    
    60   30   92 1    
    61   31   93 1    
    62   31   94 1    
    63   31   95 1    
    64   32   33 am   BACKBONE|DICT|INTERRES
    65   32   96 1    
    66   33   34 2    
    67   33   35 1    
    68   35   36 1    
    69   35   37 1    
    70   35   97 1    
    71   36   98 1    
    72   36   99 1    
    73   36  100 1    
    74   37   38 am   BACKBONE|DICT|INTERRES
    75   37  101 1    
    76   38   39 2    
    77   38   40 1    
    78   40   41 1    
    79   40   42 1    
    80   40  102 1    
    81   41  103 1    
    82   41  104 1    
    83   41  105 1    
    84   42   43 am   BACKBONE|DICT|INTERRES
    85   42  106 1    
    86   43   44 2    
    87   43   45 1    
    88   45   46 1    
    89   45   49 1    
    90   45  107 1    
    91   46   47 1    
    92   46  108 1    
    93   46  109 1    
    94   47   48 1    
    95   48  110 1    
    96   48  111 1    
    97   49   50 am   BACKBONE|DICT|INTERRES
    98   49  112 1    
    99   50   51 2    
   100   50   52 1    
   101   52   53 1    
   102   52   54 1    
   103   52  113 1    
   104   53  114 1    
   105   53  115 1    
   106   53  116 1    
   107   54   55 am   BACKBONE|DICT|INTERRES
   108   54  117 1    
   109   55   56 2    
   110   55   57 1    
   111   57   58 1    
   112   57   59 1    
   113   57  118 1    
   114   58  119 1    
   115   58  120 1    
   116   58  121 1    
   117   59   60 am   BACKBONE|DICT|INTERRES
   118   59  122 1    
   119   60   61 2    
   120   60   62 1    
   121   62   63 1    
   122   62   64 1    
   123   62  123 1    
   124   63  124 1    
   125   63  125 1    
   126   63  126 1    
   127   64   65 am   BACKBONE|DICT|INTERRES
   128   64  127 1    
   129   65   66 2    
@<TRIPOS>SUBSTRUCTURE
     1 UNK         1 GROUP             0       ****    0 ROOT    
