@<TRIPOS>MOLECULE
3R134
127   129    1
SMALL
USER_CHARGES


@<TRIPOS>ATOM
      1 CA         26.4951  -48.5952  -51.8719 C.3       0 UNK        -0.1968 
      2 C          27.9269  -48.1357  -51.6410 C.2       0 UNK         0.4852 
      3 O          28.4024  -48.1591  -50.5043 O.2       0 UNK        -0.5359 
      4 N          28.6288  -47.7333  -52.7077 N.am      1 UNK        -0.4300 
      5 CA         30.0219  -47.2785  -52.6977 C.3       1 UNK         0.0863 
      6 C6         30.2916  -46.3105  -53.8773 C.3       11 UNK        -0.0953 
      7 S7         31.6934  -45.1887  -53.5435 S.3       11 UNK        -0.2369 
      8 C8         31.2296  -43.7000  -54.5048 C.3       11 UNK         0.0226 
      9 C9         31.1994  -43.8578  -56.0291 C.ar      11 UNK        -0.0699 
     10 C10        31.6616  -45.0102  -56.6760 C.ar      11 UNK        -0.0804 
     11 C11        31.6170  -45.1289  -58.0652 C.ar      11 UNK        -0.0871 
     12 C12        31.1254  -44.0668  -58.8269 C.ar      11 UNK        -0.1008 
     13 C13        30.6884  -42.8925  -58.2049 C.ar      11 UNK        -0.0735 
     14 C14        30.7173  -42.7988  -56.8084 C.ar      11 UNK        -0.0945 
     15 C15        30.2346  -41.7147  -59.0548 C.3       11 UNK         0.0169 
     16 S16        28.4506  -41.7747  -59.4109 S.3       11 UNK        -0.2669 
     17 C17        27.7656  -40.5322  -58.2535 C.3       11 UNK        -0.0850 
     18 CA         26.6458  -41.0760  -57.3300 C.3       10 UNK         0.0855 
     19 C          25.3460  -41.4279  -58.1148 C.2       10 UNK         0.5543 
     20 N          24.9028  -42.6794  -58.1520 N.am      10 UNK        -0.7343 
     21 O          24.7206  -40.5397  -58.6889 O.2       10 UNK        -0.5027 
     22 N          27.1469  -42.1395  -56.4504 N.am      10 UNK        -0.4495 
     23 C          26.5769  -42.4966  -55.2950 C.2       10 UNK         0.4903 
     24 O          25.6150  -41.9192  -54.7846 O.2       10 UNK        -0.4860 
     25 CA         27.1768  -43.7282  -54.6010 C.3       9 UNK         0.0227 
     26 CB         27.5133  -43.4302  -53.1288 C.3       9 UNK        -0.1964 
     27 N          26.2822  -44.8846  -54.6672 N.am      9 UNK        -0.4231 
     28 C          25.8462  -45.4674  -55.7921 C.2       9 UNK         0.5014 
     29 O          26.0994  -45.0652  -56.9307 O.2       9 UNK        -0.5270 
     30 CA         24.9945  -46.7372  -55.6180 C.3       8 UNK         0.0284 
     31 CB         23.5515  -46.4968  -56.0911 C.3       8 UNK        -0.1977 
     32 N          25.5731  -47.8629  -56.3573 N.am      8 UNK        -0.4342 
     33 C          26.7911  -48.3679  -56.1233 C.2       8 UNK         0.5039 
     34 O          27.5141  -47.9912  -55.1962 O.2       8 UNK        -0.5547 
     35 CA         27.2888  -49.4546  -57.0910 C.3       7 UNK         0.0281 
     36 CB         27.5304  -48.8674  -58.4923 C.3       7 UNK        -0.1963 
     37 N          28.5425  -50.0205  -56.5932 N.am      7 UNK        -0.4444 
     38 C          28.6316  -51.0007  -55.6854 C.2       7 UNK         0.5104 
     39 O          27.6660  -51.6660  -55.3068 O.2       7 UNK        -0.5100 
     40 CA         30.0164  -51.2473  -55.0514 C.3       6 UNK         0.0396 
     41 CB         30.2894  -52.7396  -54.7685 C.3       6 UNK        -0.1801 
     42 N          31.1359  -50.6161  -55.7683 N.am      6 UNK        -0.4747 
     43 C          31.5947  -50.9364  -56.9894 C.2       6 UNK         0.5012 
     44 O          31.1459  -51.8653  -57.6621 O.2       6 UNK        -0.5003 
     45 CA         32.7159  -50.0634  -57.5943 C.3       5 UNK         0.0782 
     46 C46        32.1922  -49.2206  -58.7881 C.3       11 UNK        -0.0868 
     47 S47        31.1065  -47.8368  -58.2895 S.3       11 UNK        -0.2515 
     48 C48        32.1344  -46.3982  -58.7254 C.3       11 UNK         0.0199 
     49 N          33.4287  -49.2278  -56.6205 N.am      5 UNK        -0.4607 
     50 C          34.3261  -49.6651  -55.7294 C.2       4 UNK         0.5031 
     51 O          34.5903  -50.8556  -55.5598 O.2       4 UNK        -0.5119 
     52 CA         35.0875  -48.6061  -54.9157 C.3       4 UNK         0.0263 
     53 CB         34.8328  -47.1496  -55.3550 C.3       4 UNK        -0.1967 
     54 N          34.7346  -48.7421  -53.5076 N.am      4 UNK        -0.4237 
     55 C          35.6056  -48.8295  -52.4929 C.2       3 UNK         0.4908 
     56 O          36.8289  -48.8160  -52.6392 O.2       3 UNK        -0.5102 
     57 CA         35.0353  -48.9251  -51.0627 C.3       3 UNK         0.0241 
     58 CB         35.2493  -47.6002  -50.3113 C.3       3 UNK        -0.1971 
     59 N          33.6119  -49.2646  -51.0209 N.am      3 UNK        -0.4139 
     60 C          33.1005  -50.4681  -51.3100 C.2       2 UNK         0.5016 
     61 O          33.7850  -51.4663  -51.5351 O.2       2 UNK        -0.5319 
     62 CA         31.5673  -50.5744  -51.3867 C.3       2 UNK         0.0286 
     63 CB         31.0082  -51.2462  -50.1226 C.3       2 UNK        -0.1963 
     64 N          30.8660  -49.3001  -51.5971 N.am      2 UNK        -0.4790 
     65 C          30.9819  -48.4905  -52.6600 C.2       1 UNK         0.5024 
     66 O          31.7752  -48.6992  -53.5819 O.2       1 UNK        -0.4888 
     67 H67        26.2404  -48.6236  -52.9306 H         1 UNK         0.0892 
     68 H68        26.3532  -49.5963  -51.4659 H         1 UNK         0.0892 
     69 H69        25.7998  -47.9219  -51.3716 H         1 UNK         0.0892 
     70 H70        28.2009  -47.7932  -53.6362 H         1 UNK         0.3107 
     71 H71        30.1772  -46.7214  -51.7710 H         1 UNK         0.0773 
     72 H72        29.4122  -45.6906  -54.0488 H         1 UNK         0.0680 
     73 H73        30.4467  -46.8512  -54.8124 H         1 UNK         0.0680 
     74 H74        31.9434  -42.9124  -54.2605 H         1 UNK         0.0650 
     75 H75        30.2590  -43.3490  -54.1562 H         1 UNK         0.0650 
     76 H76        32.0569  -45.8376  -56.1108 H         1 UNK         0.1397 
     77 H77        31.1008  -44.1433  -59.9055 H         1 UNK         0.1363 
     78 H78        30.3806  -41.8902  -56.3278 H         1 UNK         0.1355 
     79 H79        30.5087  -40.7723  -58.5791 H         1 UNK         0.0707 
     80 H80        30.7707  -41.7259  -60.0051 H         1 UNK         0.0707 
     81 H81        28.5629  -40.1195  -57.6346 H         1 UNK         0.1034 
     82 H82        27.3952  -39.6887  -58.8393 H         1 UNK         0.1034 
     83 H83        26.3623  -40.2454  -56.6803 H         1 UNK         0.0482 
     84 H84        25.4199  -43.4288  -57.7008 H         1 UNK         0.3460 
     85 H85        24.0594  -42.8881  -58.6610 H         1 UNK         0.3460 
     86 H86        27.8842  -42.7128  -56.8360 H         1 UNK         0.2989 
     87 H87        28.1010  -44.0004  -55.1142 H         1 UNK         0.0559 
     88 H88        26.6182  -43.2076  -52.5465 H         1 UNK         0.0848 
     89 H89        28.1736  -42.5659  -53.0465 H         1 UNK         0.0848 
     90 H90        28.0202  -44.2703  -52.6539 H         1 UNK         0.0848 
     91 H91        25.9953  -45.2758  -53.7825 H         1 UNK         0.3144 
     92 H92        24.9677  -47.0102  -54.5611 H         1 UNK         0.0727 
     93 H93        23.0946  -45.6717  -55.5429 H         1 UNK         0.0790 
     94 H94        22.9278  -47.3764  -55.9302 H         1 UNK         0.0790 
     95 H95        23.5107  -46.2439  -57.1515 H         1 UNK         0.0790 
     96 H96        25.0509  -48.1964  -57.1544 H         1 UNK         0.3215 
     97 H97        26.5334  -50.2407  -57.1582 H         1 UNK         0.0863 
     98 H98        28.1627  -47.9796  -58.4546 H         1 UNK         0.0808 
     99 H99        26.5921  -48.5727  -58.9632 H         1 UNK         0.0808 
    100 H100       28.0078  -49.5919  -59.1526 H         1 UNK         0.0808 
    101 H101       29.3801  -49.4944  -56.7967 H         1 UNK         0.3118 
    102 H102       29.9657  -50.7480  -54.0861 H         1 UNK         0.0546 
    103 H103       30.2457  -53.3414  -55.6763 H         1 UNK         0.0828 
    104 H104       29.5506  -53.1470  -54.0775 H         1 UNK         0.0828 
    105 H105       31.2697  -52.8852  -54.3150 H         1 UNK         0.0828 
    106 H106       31.5696  -49.8359  -55.2839 H         1 UNK         0.3005 
    107 H107       33.4427  -50.7727  -57.9978 H         1 UNK         0.1257 
    108 H108       31.6459  -49.8474  -59.4959 H         1 UNK         0.0775 
    109 H109       33.0394  -48.8288  -59.3530 H         1 UNK         0.0775 
    110 H110       33.1638  -46.5659  -58.4056 H         1 UNK         0.0840 
    111 H111       32.1596  -46.2932  -59.8112 H         1 UNK         0.0840 
    112 H112       33.2417  -48.2382  -56.6737 H         1 UNK         0.2987 
    113 H113       36.1475  -48.8212  -55.0658 H         1 UNK         0.0785 
    114 H114       35.0375  -47.0046  -56.4166 H         1 UNK         0.0798 
    115 H115       35.4827  -46.4635  -54.8114 H         1 UNK         0.0798 
    116 H116       33.8063  -46.8453  -55.1558 H         1 UNK         0.0798 
    117 H117       33.7390  -48.7972  -53.3145 H         1 UNK         0.3079 
    118 H118       35.5901  -49.7091  -50.5428 H         1 UNK         0.0794 
    119 H119       36.3063  -47.3311  -50.2864 H         1 UNK         0.0786 
    120 H120       34.9115  -47.6704  -49.2771 H         1 UNK         0.0786 
    121 H121       34.7148  -46.7761  -50.7859 H         1 UNK         0.0786 
    122 H122       32.9666  -48.5105  -50.8360 H         1 UNK         0.3032 
    123 H123       31.3466  -51.2188  -52.2391 H         1 UNK         0.1094 
    124 H124       31.4842  -52.2125  -49.9486 H         1 UNK         0.0794 
    125 H125       31.1748  -50.6353  -49.2345 H         1 UNK         0.0794 
    126 H126       29.9366  -51.4268  -50.2102 H         1 UNK         0.0794 
    127 H127       30.1542  -49.0529  -50.9147 H         1 UNK         0.3016 
@<TRIPOS>BOND
     1    1    2 1    
     2    1   67 1    
     3    1   68 1    
     4    1   69 1    
     5    2    3 2    
     6    2    4 am   BACKBONE|DICT|INTERRES
     7    4    5 1    
     8    4   70 1    
     9    5    6 1    
    10    5   65 1    
    11    5   71 1    
    12    6    7 1    
    13    6   72 1    
    14    6   73 1    
    15    7    8 1    
    16    8    9 1    
    17    8   74 1    
    18    8   75 1    
    19    9   10 ar   
    20    9   14 ar   
    21   10   11 ar   
    22   10   76 1    
    23   11   12 ar   
    24   11   48 1    
    25   12   13 ar   
    26   12   77 1    
    27   13   14 ar   
    28   13   15 1    
    29   14   78 1    
    30   15   16 1    
    31   15   79 1    
    32   15   80 1    
    33   16   17 1    
    34   17   18 1    
    35   17   81 1    
    36   17   82 1    
    37   18   19 1    
    38   18   22 1    
    39   18   83 1    
    40   19   20 am   BACKBONE|DICT|INTERRES
    41   19   21 2    
    42   20   84 1    
    43   20   85 1    
    44   22   23 am   BACKBONE|DICT|INTERRES
    45   22   86 1    
    46   23   24 2    
    47   23   25 1    
    48   25   26 1    
    49   25   27 1    
    50   25   87 1    
    51   26   88 1    
    52   26   89 1    
    53   26   90 1    
    54   27   28 am   BACKBONE|DICT|INTERRES
    55   27   91 1    
    56   28   29 2    
    57   28   30 1    
    58   30   31 1    
    59   30   32 1    
    60   30   92 1    
    61   31   93 1    
    62   31   94 1    
    63   31   95 1    
    64   32   33 am   BACKBONE|DICT|INTERRES
    65   32   96 1    
    66   33   34 2    
    67   33   35 1    
    68   35   36 1    
    69   35   37 1    
    70   35   97 1    
    71   36   98 1    
    72   36   99 1    
    73   36  100 1    
    74   37   38 am   BACKBONE|DICT|INTERRES
    75   37  101 1    
    76   38   39 2    
    77   38   40 1    
    78   40   41 1    
    79   40   42 1    
    80   40  102 1    
    81   41  103 1    
    82   41  104 1    
    83   41  105 1    
    84   42   43 am   BACKBONE|DICT|INTERRES
    85   42  106 1    
    86   43   44 2    
    87   43   45 1    
    88   45   46 1    
    89   45   49 1    
    90   45  107 1    
    91   46   47 1    
    92   46  108 1    
    93   46  109 1    
    94   47   48 1    
    95   48  110 1    
    96   48  111 1    
    97   49   50 am   BACKBONE|DICT|INTERRES
    98   49  112 1    
    99   50   51 2    
   100   50   52 1    
   101   52   53 1    
   102   52   54 1    
   103   52  113 1    
   104   53  114 1    
   105   53  115 1    
   106   53  116 1    
   107   54   55 am   BACKBONE|DICT|INTERRES
   108   54  117 1    
   109   55   56 2    
   110   55   57 1    
   111   57   58 1    
   112   57   59 1    
   113   57  118 1    
   114   58  119 1    
   115   58  120 1    
   116   58  121 1    
   117   59   60 am   BACKBONE|DICT|INTERRES
   118   59  122 1    
   119   60   61 2    
   120   60   62 1    
   121   62   63 1    
   122   62   64 1    
   123   62  123 1    
   124   63  124 1    
   125   63  125 1    
   126   63  126 1    
   127   64   65 am   BACKBONE|DICT|INTERRES
   128   64  127 1    
   129   65   66 2    
@<TRIPOS>SUBSTRUCTURE
     1 UNK         1 GROUP             0       ****    0 ROOT    
