@<TRIPOS>MOLECULE
3R134
127   129    1
SMALL
USER_CHARGES


@<TRIPOS>ATOM
      1 CA         38.1805  -44.3831  -52.9885 C.3       0 UNK        -0.1968 
      2 C          36.9265  -45.0317  -52.4213 C.2       0 UNK         0.4852 
      3 O          36.8988  -45.3662  -51.2355 O.2       0 UNK        -0.5359 
      4 N          35.8950  -45.2111  -53.2606 N.am      1 UNK        -0.4300 
      5 CA         34.5997  -45.8360  -52.9637 C.3       1 UNK         0.0863 
      6 C6         33.8219  -45.1353  -51.8137 C.3       11 UNK        -0.0953 
      7 S7         32.0759  -45.6585  -51.6629 S.3       11 UNK        -0.2369 
      8 C8         31.1734  -44.0955  -51.9331 C.3       11 UNK         0.0226 
      9 C9         30.6704  -43.9790  -53.3640 C.ar      11 UNK        -0.0699 
     10 C10        31.5710  -43.8290  -54.4211 C.ar      11 UNK        -0.0804 
     11 C11        31.1169  -43.8017  -55.7432 C.ar      11 UNK        -0.0871 
     12 C12        29.7451  -43.8698  -56.0019 C.ar      11 UNK        -0.1008 
     13 C13        28.8316  -43.9850  -54.9501 C.ar      11 UNK        -0.0735 
     14 C14        29.3007  -44.0426  -53.6344 C.ar      11 UNK        -0.0945 
     15 C15        27.3431  -44.1148  -55.2294 C.3       11 UNK         0.0169 
     16 S16        26.5520  -42.4994  -55.5111 S.3       11 UNK        -0.2669 
     17 C17        26.5117  -42.4101  -57.3361 C.3       11 UNK        -0.0850 
     18 CA         25.1681  -42.9232  -57.9230 C.3       10 UNK         0.0855 
     19 C          25.0736  -42.6491  -59.4535 C.2       10 UNK         0.5543 
     20 N          24.8838  -43.6479  -60.3089 N.am      10 UNK        -0.7343 
     21 O          25.1669  -41.4986  -59.8738 O.2       10 UNK        -0.5027 
     22 N          24.9302  -44.3249  -57.5520 N.am      10 UNK        -0.4495 
     23 C          23.7365  -44.9148  -57.4337 C.2       10 UNK         0.4903 
     24 O          22.6626  -44.3242  -57.5578 O.2       10 UNK        -0.4860 
     25 CA         23.7628  -46.4273  -57.1256 C.3       9 UNK         0.0227 
     26 CB         22.4672  -47.1442  -57.5605 C.3       9 UNK        -0.1964 
     27 N          24.9440  -47.1192  -57.6668 N.am      9 UNK        -0.4231 
     28 C          25.3193  -47.1886  -58.9571 C.2       9 UNK         0.5014 
     29 O          24.7124  -46.6295  -59.8720 O.2       9 UNK        -0.5270 
     30 CA         26.6071  -47.9645  -59.2980 C.3       8 UNK         0.0284 
     31 CB         27.7018  -46.9922  -59.7698 C.3       8 UNK        -0.1977 
     32 N          27.1211  -48.7692  -58.1858 N.am      8 UNK        -0.4342 
     33 C          26.5590  -49.9086  -57.7511 C.2       8 UNK         0.5039 
     34 O          25.6002  -50.4442  -58.3084 O.2       8 UNK        -0.5547 
     35 CA         27.1261  -50.5551  -56.4712 C.3       7 UNK         0.0281 
     36 CB         27.9318  -51.8174  -56.8175 C.3       7 UNK        -0.1963 
     37 N          27.9549  -49.6592  -55.6589 N.am      7 UNK        -0.4444 
     38 C          27.5212  -48.5458  -55.0485 C.2       7 UNK         0.5104 
     39 O          26.3527  -48.1574  -55.0891 O.2       7 UNK        -0.5100 
     40 CA         28.5766  -47.6816  -54.3323 C.3       6 UNK         0.0396 
     41 CB         28.6278  -48.0163  -52.8344 C.3       6 UNK        -0.1801 
     42 N          29.9267  -47.7759  -54.8993 N.am      6 UNK        -0.4747 
     43 C          30.2606  -47.5245  -56.1763 C.2       6 UNK         0.5012 
     44 O          29.4445  -47.1856  -57.0338 O.2       6 UNK        -0.5003 
     45 CA         31.7291  -47.7931  -56.5801 C.3       5 UNK         0.0782 
     46 C46        32.6151  -46.5257  -56.5313 C.3       11 UNK        -0.0868 
     47 S47        32.2060  -45.3018  -57.8258 S.3       11 UNK        -0.2515 
     48 C48        32.1142  -43.7359  -56.8913 C.3       11 UNK         0.0199 
     49 N          32.3175  -48.8728  -55.7781 N.am      5 UNK        -0.4607 
     50 C          31.9455  -50.1587  -55.8594 C.2       4 UNK         0.5031 
     51 O          31.0976  -50.5759  -56.6462 O.2       4 UNK        -0.5119 
     52 CA         32.5914  -51.1268  -54.8647 C.3       4 UNK         0.0263 
     53 CB         34.0330  -51.4586  -55.2840 C.3       4 UNK        -0.1967 
     54 N          32.5983  -50.5517  -53.5221 N.am      4 UNK        -0.4237 
     55 C          31.6419  -50.7169  -52.5975 C.2       3 UNK         0.4908 
     56 O          30.6174  -51.3704  -52.7962 O.2       3 UNK        -0.5102 
     57 CA         31.8383  -50.0220  -51.2288 C.3       3 UNK         0.0241 
     58 CB         31.4824  -50.9508  -50.0494 C.3       3 UNK        -0.1971 
     59 N          33.1661  -49.4154  -51.0482 N.am      3 UNK        -0.4139 
     60 C          34.3613  -50.0287  -51.0360 C.2       2 UNK         0.5016 
     61 O          34.5023  -51.2510  -50.9859 O.2       2 UNK        -0.5319 
     62 CA         35.6103  -49.1297  -51.1713 C.3       2 UNK         0.0286 
     63 CB         36.6828  -49.7801  -52.0707 C.3       2 UNK        -0.1963 
     64 N          35.3412  -47.7588  -51.6369 N.am      2 UNK        -0.4790 
     65 C          34.7356  -47.3587  -52.7664 C.2       1 UNK         0.5024 
     66 O          34.2702  -48.1257  -53.6139 O.2       1 UNK        -0.4888 
     67 H67        38.4077  -43.4675  -52.4431 H         1 UNK         0.0892 
     68 H68        38.0702  -44.1308  -54.0430 H         1 UNK         0.0892 
     69 H69        39.0294  -45.0589  -52.8885 H         1 UNK         0.0892 
     70 H70        36.0134  -44.9316  -54.2247 H         1 UNK         0.3107 
     71 H71        34.0158  -45.6999  -53.8719 H         1 UNK         0.0773 
     72 H72        34.3007  -45.3051  -50.8485 H         1 UNK         0.0680 
     73 H73        33.8617  -44.0565  -51.9660 H         1 UNK         0.0680 
     74 H74        30.3346  -44.0686  -51.2360 H         1 UNK         0.0650 
     75 H75        31.7930  -43.2336  -51.6840 H         1 UNK         0.0650 
     76 H76        32.6299  -43.7734  -54.2138 H         1 UNK         0.1397 
     77 H77        29.3954  -43.8651  -57.0245 H         1 UNK         0.1363 
     78 H78        28.5976  -44.1583  -52.8209 H         1 UNK         0.1355 
     79 H79        26.8441  -44.5942  -54.3856 H         1 UNK         0.0707 
     80 H80        27.1903  -44.7805  -56.0789 H         1 UNK         0.0707 
     81 H81        27.3548  -42.9569  -57.7599 H         1 UNK         0.1034 
     82 H82        26.6689  -41.3647  -57.6090 H         1 UNK         0.1034 
     83 H83        24.3723  -42.3257  -57.4739 H         1 UNK         0.0482 
     84 H84        24.8214  -43.4425  -61.2932 H         1 UNK         0.3460 
     85 H85        24.7864  -44.6059  -59.9912 H         1 UNK         0.3460 
     86 H86        25.7503  -44.9020  -57.4572 H         1 UNK         0.2989 
     87 H87        23.8376  -46.5116  -56.0404 H         1 UNK         0.0559 
     88 H88        21.5974  -46.7264  -57.0521 H         1 UNK         0.0848 
     89 H89        22.5017  -48.2066  -57.3193 H         1 UNK         0.0848 
     90 H90        22.2932  -47.0492  -58.6328 H         1 UNK         0.0848 
     91 H91        25.5178  -47.5926  -56.9764 H         1 UNK         0.3144 
     92 H92        26.3714  -48.6372  -60.1253 H         1 UNK         0.0727 
     93 H93        28.6237  -47.5184  -60.0180 H         1 UNK         0.0790 
     94 H94        27.9362  -46.2459  -59.0097 H         1 UNK         0.0790 
     95 H95        27.3863  -46.4533  -60.6644 H         1 UNK         0.0790 
     96 H96        27.9164  -48.3853  -57.6831 H         1 UNK         0.3215 
     97 H97        26.2727  -50.8536  -55.8585 H         1 UNK         0.0863 
     98 H98        28.3207  -52.3029  -55.9221 H         1 UNK         0.0808 
     99 H99        28.7747  -51.5901  -57.4709 H         1 UNK         0.0808 
    100 H100       27.3083  -52.5468  -57.3363 H         1 UNK         0.0808 
    101 H101       28.9405  -49.8802  -55.6075 H         1 UNK         0.3118 
    102 H102       28.2578  -46.6463  -54.4335 H         1 UNK         0.0546 
    103 H103       27.6454  -47.8955  -52.3759 H         1 UNK         0.0828 
    104 H104       29.3137  -47.3565  -52.3024 H         1 UNK         0.0828 
    105 H105       28.9416  -49.0460  -52.6612 H         1 UNK         0.0828 
    106 H106       30.6620  -48.0623  -54.2711 H         1 UNK         0.3005 
    107 H107       31.7052  -48.1417  -57.6156 H         1 UNK         0.1257 
    108 H108       33.6612  -46.8001  -56.6771 H         1 UNK         0.0775 
    109 H109       32.5637  -46.0768  -55.5424 H         1 UNK         0.0775 
    110 H110       33.1109  -43.4825  -56.5264 H         1 UNK         0.0840 
    111 H111       31.8267  -42.9337  -57.5724 H         1 UNK         0.0840 
    112 H112       33.0274  -48.6072  -55.1029 H         1 UNK         0.2987 
    113 H113       32.0134  -52.0537  -54.8651 H         1 UNK         0.0785 
    114 H114       34.6691  -50.5724  -55.2976 H         1 UNK         0.0798 
    115 H115       34.0578  -51.8952  -56.2834 H         1 UNK         0.0798 
    116 H116       34.4842  -52.1809  -54.6033 H         1 UNK         0.0798 
    117 H117       33.3760  -49.9405  -53.3012 H         1 UNK         0.3079 
    118 H118       31.1315  -49.1912  -51.2145 H         1 UNK         0.0794 
    119 H119       32.0976  -51.8510  -50.0401 H         1 UNK         0.0786 
    120 H120       30.4417  -51.2725  -50.1051 H         1 UNK         0.0786 
    121 H121       31.6123  -50.4450  -49.0926 H         1 UNK         0.0786 
    122 H122       33.1822  -48.4049  -51.0768 H         1 UNK         0.3032 
    123 H123       36.0252  -49.0396  -50.1660 H         1 UNK         0.1094 
    124 H124       37.0055  -50.7415  -51.6691 H         1 UNK         0.0794 
    125 H125       36.3104  -49.9581  -53.0802 H         1 UNK         0.0794 
    126 H126       37.5700  -49.1514  -52.1470 H         1 UNK         0.0794 
    127 H127       35.7370  -47.0177  -51.0643 H         1 UNK         0.3016 
@<TRIPOS>BOND
     1    1    2 1    
     2    1   67 1    
     3    1   68 1    
     4    1   69 1    
     5    2    3 2    
     6    2    4 am   BACKBONE|DICT|INTERRES
     7    4    5 1    
     8    4   70 1    
     9    5    6 1    
    10    5   65 1    
    11    5   71 1    
    12    6    7 1    
    13    6   72 1    
    14    6   73 1    
    15    7    8 1    
    16    8    9 1    
    17    8   74 1    
    18    8   75 1    
    19    9   10 ar   
    20    9   14 ar   
    21   10   11 ar   
    22   10   76 1    
    23   11   12 ar   
    24   11   48 1    
    25   12   13 ar   
    26   12   77 1    
    27   13   14 ar   
    28   13   15 1    
    29   14   78 1    
    30   15   16 1    
    31   15   79 1    
    32   15   80 1    
    33   16   17 1    
    34   17   18 1    
    35   17   81 1    
    36   17   82 1    
    37   18   19 1    
    38   18   22 1    
    39   18   83 1    
    40   19   20 am   BACKBONE|DICT|INTERRES
    41   19   21 2    
    42   20   84 1    
    43   20   85 1    
    44   22   23 am   BACKBONE|DICT|INTERRES
    45   22   86 1    
    46   23   24 2    
    47   23   25 1    
    48   25   26 1    
    49   25   27 1    
    50   25   87 1    
    51   26   88 1    
    52   26   89 1    
    53   26   90 1    
    54   27   28 am   BACKBONE|DICT|INTERRES
    55   27   91 1    
    56   28   29 2    
    57   28   30 1    
    58   30   31 1    
    59   30   32 1    
    60   30   92 1    
    61   31   93 1    
    62   31   94 1    
    63   31   95 1    
    64   32   33 am   BACKBONE|DICT|INTERRES
    65   32   96 1    
    66   33   34 2    
    67   33   35 1    
    68   35   36 1    
    69   35   37 1    
    70   35   97 1    
    71   36   98 1    
    72   36   99 1    
    73   36  100 1    
    74   37   38 am   BACKBONE|DICT|INTERRES
    75   37  101 1    
    76   38   39 2    
    77   38   40 1    
    78   40   41 1    
    79   40   42 1    
    80   40  102 1    
    81   41  103 1    
    82   41  104 1    
    83   41  105 1    
    84   42   43 am   BACKBONE|DICT|INTERRES
    85   42  106 1    
    86   43   44 2    
    87   43   45 1    
    88   45   46 1    
    89   45   49 1    
    90   45  107 1    
    91   46   47 1    
    92   46  108 1    
    93   46  109 1    
    94   47   48 1    
    95   48  110 1    
    96   48  111 1    
    97   49   50 am   BACKBONE|DICT|INTERRES
    98   49  112 1    
    99   50   51 2    
   100   50   52 1    
   101   52   53 1    
   102   52   54 1    
   103   52  113 1    
   104   53  114 1    
   105   53  115 1    
   106   53  116 1    
   107   54   55 am   BACKBONE|DICT|INTERRES
   108   54  117 1    
   109   55   56 2    
   110   55   57 1    
   111   57   58 1    
   112   57   59 1    
   113   57  118 1    
   114   58  119 1    
   115   58  120 1    
   116   58  121 1    
   117   59   60 am   BACKBONE|DICT|INTERRES
   118   59  122 1    
   119   60   61 2    
   120   60   62 1    
   121   62   63 1    
   122   62   64 1    
   123   62  123 1    
   124   63  124 1    
   125   63  125 1    
   126   63  126 1    
   127   64   65 am   BACKBONE|DICT|INTERRES
   128   64  127 1    
   129   65   66 2    
@<TRIPOS>SUBSTRUCTURE
     1 UNK         1 GROUP             0       ****    0 ROOT    
