@<TRIPOS>MOLECULE
3R134
127   129    1
SMALL
USER_CHARGES


@<TRIPOS>ATOM
      1 CA         28.8309  -44.8576  -49.2914 C.3       0 UNK        -0.1968 
      2 C          30.3127  -45.0932  -49.5458 C.2       0 UNK         0.4852 
      3 O          31.0383  -45.4705  -48.6238 O.2       0 UNK        -0.5359 
      4 N          30.7659  -44.8665  -50.7856 N.am      1 UNK        -0.4300 
      5 CA         32.1370  -45.1245  -51.2364 C.3       1 UNK         0.0863 
      6 C6         32.4448  -44.3446  -52.5364 C.3       11 UNK        -0.0953 
      7 S7         34.2222  -43.9821  -52.7355 S.3       11 UNK        -0.2369 
      8 C8         34.1710  -42.4563  -53.7367 C.3       11 UNK         0.0226 
      9 C9         33.3114  -42.6206  -54.9833 C.ar      11 UNK        -0.0699 
     10 C10        33.6214  -43.6083  -55.9206 C.ar      11 UNK        -0.0804 
     11 C11        32.7789  -43.8445  -57.0107 C.ar      11 UNK        -0.0871 
     12 C12        31.6616  -43.0270  -57.2031 C.ar      11 UNK        -0.1008 
     13 C13        31.3517  -42.0191  -56.2852 C.ar      11 UNK        -0.0735 
     14 C14        32.1778  -41.8245  -55.1735 C.ar      11 UNK        -0.0945 
     15 C15        30.1167  -41.1515  -56.4809 C.3       11 UNK         0.0169 
     16 S16        28.5843  -42.0686  -56.1158 S.3       11 UNK        -0.2669 
     17 C17        28.0435  -42.5506  -57.7925 C.3       11 UNK        -0.0850 
     18 CA         26.5772  -43.0570  -57.8145 C.3       10 UNK         0.0855 
     19 C          26.0154  -43.1182  -59.2681 C.2       10 UNK         0.5543 
     20 N          25.4806  -44.2353  -59.7468 N.am      10 UNK        -0.7343 
     21 O          26.0573  -42.1180  -59.9804 O.2       10 UNK        -0.5027 
     22 N          26.4346  -44.3072  -57.0513 N.am      10 UNK        -0.4495 
     23 C          25.2984  -44.7437  -56.4962 C.2       10 UNK         0.4903 
     24 O          24.2484  -44.0987  -56.4820 O.2       10 UNK        -0.4860 
     25 CA         25.3545  -46.1545  -55.8774 C.3       9 UNK         0.0227 
     26 CB         23.9614  -46.7115  -55.5174 C.3       9 UNK        -0.1964 
     27 N          26.0899  -47.1157  -56.7099 N.am      9 UNK        -0.4231 
     28 C          25.8336  -47.4582  -57.9831 C.2       9 UNK         0.5014 
     29 O          24.9463  -46.9507  -58.6697 O.2       9 UNK        -0.5270 
     30 CA         26.7281  -48.5451  -58.6056 C.3       8 UNK         0.0284 
     31 CB         27.9862  -47.9124  -59.2212 C.3       8 UNK        -0.1977 
     32 N          27.1132  -49.5865  -57.6486 N.am      8 UNK        -0.4342 
     33 C          26.2586  -50.4485  -57.0768 C.2       8 UNK         0.5039 
     34 O          25.0623  -50.5221  -57.3599 O.2       8 UNK        -0.5547 
     35 CA         26.8285  -51.3662  -55.9840 C.3       7 UNK         0.0281 
     36 CB         27.4811  -52.6176  -56.5945 C.3       7 UNK        -0.1963 
     37 N          27.7917  -50.6632  -55.1344 N.am      7 UNK        -0.4444 
     38 C          27.4590  -49.7604  -54.2002 C.2       7 UNK         0.5104 
     39 O          26.3000  -49.4685  -53.9066 O.2       7 UNK        -0.5100 
     40 CA         28.6194  -49.0548  -53.4793 C.3       6 UNK         0.0396 
     41 CB         29.0799  -49.9049  -52.2840 C.3       6 UNK        -0.1801 
     42 N          29.7521  -48.7831  -54.3707 N.am      6 UNK        -0.4747 
     43 C          29.7241  -47.8969  -55.3814 C.2       6 UNK         0.5012 
     44 O          28.7545  -47.1778  -55.6239 O.2       6 UNK        -0.5003 
     45 CA         30.9441  -47.8454  -56.3282 C.3       5 UNK         0.0782 
     46 C46        31.9182  -46.7196  -55.9206 C.3       11 UNK        -0.0868 
     47 S47        33.3494  -46.5846  -57.0556 S.3       11 UNK        -0.2515 
     48 C48        33.0336  -45.0198  -57.9470 C.3       11 UNK         0.0199 
     49 N          31.6142  -49.1416  -56.4396 N.am      5 UNK        -0.4607 
     50 C          31.0534  -50.2513  -56.9335 C.2       4 UNK         0.5031 
     51 O          29.9170  -50.2794  -57.4062 O.2       4 UNK        -0.5119 
     52 CA         31.8654  -51.5555  -56.8461 C.3       4 UNK         0.0263 
     53 CB         32.4537  -51.9079  -58.2212 C.3       4 UNK        -0.1967 
     54 N          32.9431  -51.5422  -55.8476 N.am      4 UNK        -0.4237 
     55 C          32.7898  -51.3541  -54.5280 C.2       3 UNK         0.4908 
     56 O          31.6988  -51.1390  -53.9959 O.2       3 UNK        -0.5102 
     57 CA         34.0563  -51.4390  -53.6531 C.3       3 UNK         0.0241 
     58 CB         35.3812  -51.2916  -54.4387 C.3       3 UNK        -0.1971 
     59 N          34.0198  -50.5090  -52.5176 N.am      3 UNK        -0.4139 
     60 C          33.9981  -49.1680  -52.5593 C.2       2 UNK         0.5016 
     61 O          33.9985  -48.5030  -53.5977 O.2       2 UNK        -0.5319 
     62 CA         34.0601  -48.4706  -51.1861 C.3       2 UNK         0.0286 
     63 CB         35.4891  -48.5355  -50.6183 C.3       2 UNK        -0.1963 
     64 N          33.6378  -47.0670  -51.2047 N.am      2 UNK        -0.4790 
     65 C          32.3824  -46.6429  -51.3916 C.2       1 UNK         0.5024 
     66 O          31.4407  -47.3935  -51.6520 O.2       1 UNK        -0.4888 
     67 H67        28.3141  -44.5049  -50.1837 H         1 UNK         0.0892 
     68 H68        28.6982  -44.1132  -48.5068 H         1 UNK         0.0892 
     69 H69        28.3549  -45.7829  -48.9680 H         1 UNK         0.0892 
     70 H70        30.1142  -44.5934  -51.5066 H         1 UNK         0.3107 
     71 H71        32.7998  -44.7563  -50.4495 H         1 UNK         0.0773 
     72 H72        31.9229  -43.3862  -52.5199 H         1 UNK         0.0680 
     73 H73        32.0771  -44.8691  -53.4205 H         1 UNK         0.0680 
     74 H74        33.8028  -41.6393  -53.1142 H         1 UNK         0.0650 
     75 H75        35.1865  -42.1893  -54.0317 H         1 UNK         0.0650 
     76 H76        34.4851  -44.2397  -55.7619 H         1 UNK         0.1397 
     77 H77        31.0144  -43.1937  -58.0520 H         1 UNK         0.1363 
     78 H78        31.9291  -41.0627  -54.4472 H         1 UNK         0.1355 
     79 H79        30.0995  -40.7570  -57.4977 H         1 UNK         0.0707 
     80 H80        30.1593  -40.2814  -55.8239 H         1 UNK         0.0707 
     81 H81        28.7142  -43.3137  -58.1887 H         1 UNK         0.1034 
     82 H82        28.1543  -41.6786  -58.4401 H         1 UNK         0.1034 
     83 H83        25.9704  -42.2993  -57.3147 H         1 UNK         0.0482 
     84 H84        25.3853  -45.0684  -59.1768 H         1 UNK         0.3460 
     85 H85        25.1228  -44.2374  -60.6884 H         1 UNK         0.3460 
     86 H86        27.2498  -44.9008  -57.0075 H         1 UNK         0.2989 
     87 H87        25.9221  -46.0598  -54.9504 H         1 UNK         0.0559 
     88 H88        24.0382  -47.6966  -55.0566 H         1 UNK         0.0848 
     89 H89        23.3227  -46.8016  -56.3967 H         1 UNK         0.0848 
     90 H90        23.4498  -46.0608  -54.8073 H         1 UNK         0.0848 
     91 H91        26.9176  -47.5111  -56.2737 H         1 UNK         0.3144 
     92 H92        26.1611  -49.0253  -59.4059 H         1 UNK         0.0727 
     93 H93        28.6401  -48.6669  -59.6594 H         1 UNK         0.0790 
     94 H94        28.5605  -47.3558  -58.4817 H         1 UNK         0.0790 
     95 H95        27.7187  -47.2132  -60.0147 H         1 UNK         0.0790 
     96 H96        28.1023  -49.6721  -57.4267 H         1 UNK         0.3215 
     97 H97        25.9954  -51.6933  -55.3575 H         1 UNK         0.0863 
     98 H98        27.8533  -53.2889  -55.8204 H         1 UNK         0.0808 
     99 H99        28.3143  -52.3680  -57.2515 H         1 UNK         0.0808 
    100 H100       26.7586  -53.1788  -57.1886 H         1 UNK         0.0808 
    101 H101       28.7716  -50.8144  -55.3277 H         1 UNK         0.3118 
    102 H102       28.2531  -48.0991  -53.0983 H         1 UNK         0.0546 
    103 H103       28.2629  -50.0549  -51.5772 H         1 UNK         0.0828 
    104 H104       29.8926  -49.4287  -51.7386 H         1 UNK         0.0828 
    105 H105       29.4236  -50.8916  -52.5958 H         1 UNK         0.0828 
    106 H106       30.5773  -49.3606  -54.2433 H         1 UNK         0.3005 
    107 H107       30.5606  -47.6025  -57.3204 H         1 UNK         0.1257 
    108 H108       32.3053  -46.8963  -54.9154 H         1 UNK         0.0775 
    109 H109       31.3872  -45.7680  -55.8710 H         1 UNK         0.0775 
    110 H110       33.8925  -44.7913  -58.5791 H         1 UNK         0.0840 
    111 H111       32.1863  -45.1712  -58.6178 H         1 UNK         0.0840 
    112 H112       32.5499  -49.1908  -56.0619 H         1 UNK         0.2987 
    113 H113       31.1666  -52.3444  -56.5604 H         1 UNK         0.0785 
    114 H114       33.1830  -51.1664  -58.5501 H         1 UNK         0.0798 
    115 H115       31.6713  -51.9539  -58.9805 H         1 UNK         0.0798 
    116 H116       32.9444  -52.8813  -58.2072 H         1 UNK         0.0798 
    117 H117       33.8771  -51.7057  -56.1952 H         1 UNK         0.3079 
    118 H118       34.0452  -52.4395  -53.2183 H         1 UNK         0.0794 
    119 H119       35.4278  -50.3520  -54.9912 H         1 UNK         0.0786 
    120 H120       35.5186  -52.1061  -55.1509 H         1 UNK         0.0786 
    121 H121       36.2388  -51.3181  -53.7662 H         1 UNK         0.0786 
    122 H122       33.9933  -50.9513  -51.6095 H         1 UNK         0.3032 
    123 H123       33.3895  -49.0063  -50.5099 H         1 UNK         0.1094 
    124 H124       36.1984  -48.0051  -51.2554 H         1 UNK         0.0794 
    125 H125       35.5413  -48.0983  -49.6209 H         1 UNK         0.0794 
    126 H126       35.8376  -49.5657  -50.5333 H         1 UNK         0.0794 
    127 H127       34.3619  -46.3770  -51.0649 H         1 UNK         0.3016 
@<TRIPOS>BOND
     1    1    2 1    
     2    1   67 1    
     3    1   68 1    
     4    1   69 1    
     5    2    3 2    
     6    2    4 am   BACKBONE|DICT|INTERRES
     7    4    5 1    
     8    4   70 1    
     9    5    6 1    
    10    5   65 1    
    11    5   71 1    
    12    6    7 1    
    13    6   72 1    
    14    6   73 1    
    15    7    8 1    
    16    8    9 1    
    17    8   74 1    
    18    8   75 1    
    19    9   10 ar   
    20    9   14 ar   
    21   10   11 ar   
    22   10   76 1    
    23   11   12 ar   
    24   11   48 1    
    25   12   13 ar   
    26   12   77 1    
    27   13   14 ar   
    28   13   15 1    
    29   14   78 1    
    30   15   16 1    
    31   15   79 1    
    32   15   80 1    
    33   16   17 1    
    34   17   18 1    
    35   17   81 1    
    36   17   82 1    
    37   18   19 1    
    38   18   22 1    
    39   18   83 1    
    40   19   20 am   BACKBONE|DICT|INTERRES
    41   19   21 2    
    42   20   84 1    
    43   20   85 1    
    44   22   23 am   BACKBONE|DICT|INTERRES
    45   22   86 1    
    46   23   24 2    
    47   23   25 1    
    48   25   26 1    
    49   25   27 1    
    50   25   87 1    
    51   26   88 1    
    52   26   89 1    
    53   26   90 1    
    54   27   28 am   BACKBONE|DICT|INTERRES
    55   27   91 1    
    56   28   29 2    
    57   28   30 1    
    58   30   31 1    
    59   30   32 1    
    60   30   92 1    
    61   31   93 1    
    62   31   94 1    
    63   31   95 1    
    64   32   33 am   BACKBONE|DICT|INTERRES
    65   32   96 1    
    66   33   34 2    
    67   33   35 1    
    68   35   36 1    
    69   35   37 1    
    70   35   97 1    
    71   36   98 1    
    72   36   99 1    
    73   36  100 1    
    74   37   38 am   BACKBONE|DICT|INTERRES
    75   37  101 1    
    76   38   39 2    
    77   38   40 1    
    78   40   41 1    
    79   40   42 1    
    80   40  102 1    
    81   41  103 1    
    82   41  104 1    
    83   41  105 1    
    84   42   43 am   BACKBONE|DICT|INTERRES
    85   42  106 1    
    86   43   44 2    
    87   43   45 1    
    88   45   46 1    
    89   45   49 1    
    90   45  107 1    
    91   46   47 1    
    92   46  108 1    
    93   46  109 1    
    94   47   48 1    
    95   48  110 1    
    96   48  111 1    
    97   49   50 am   BACKBONE|DICT|INTERRES
    98   49  112 1    
    99   50   51 2    
   100   50   52 1    
   101   52   53 1    
   102   52   54 1    
   103   52  113 1    
   104   53  114 1    
   105   53  115 1    
   106   53  116 1    
   107   54   55 am   BACKBONE|DICT|INTERRES
   108   54  117 1    
   109   55   56 2    
   110   55   57 1    
   111   57   58 1    
   112   57   59 1    
   113   57  118 1    
   114   58  119 1    
   115   58  120 1    
   116   58  121 1    
   117   59   60 am   BACKBONE|DICT|INTERRES
   118   59  122 1    
   119   60   61 2    
   120   60   62 1    
   121   62   63 1    
   122   62   64 1    
   123   62  123 1    
   124   63  124 1    
   125   63  125 1    
   126   63  126 1    
   127   64   65 am   BACKBONE|DICT|INTERRES
   128   64  127 1    
   129   65   66 2    
@<TRIPOS>SUBSTRUCTURE
     1 UNK         1 GROUP             0       ****    0 ROOT    
