@<TRIPOS>MOLECULE
3R134
127   129    1
SMALL
USER_CHARGES


@<TRIPOS>ATOM
      1 CA         39.3231  -43.0878  -50.5614 C.3       0 UNK        -0.1968 
      2 C          38.4024  -43.8975  -51.4630 C.2       0 UNK         0.4852 
      3 O          38.8439  -44.3889  -52.5028 O.2       0 UNK        -0.5359 
      4 N          37.1315  -44.0415  -51.0710 N.am      1 UNK        -0.4300 
      5 CA         36.1045  -44.7888  -51.7973 C.3       1 UNK         0.0863 
      6 C6         35.4113  -43.9250  -52.8843 C.3       11 UNK        -0.0953 
      7 S7         34.4672  -44.9135  -54.0965 S.3       11 UNK        -0.2369 
      8 C8         32.8321  -44.1167  -53.9534 C.3       11 UNK         0.0226 
      9 C9         31.7595  -44.6695  -54.8903 C.ar      11 UNK        -0.0699 
     10 C10        32.0647  -45.1602  -56.1668 C.ar      11 UNK        -0.0804 
     11 C11        31.0513  -45.6083  -57.0198 C.ar      11 UNK        -0.0871 
     12 C12        29.7212  -45.5486  -56.5983 C.ar      11 UNK        -0.1008 
     13 C13        29.4013  -45.0653  -55.3276 C.ar      11 UNK        -0.0735 
     14 C14        30.4229  -44.6297  -54.4798 C.ar      11 UNK        -0.0945 
     15 C15        27.9475  -44.9823  -54.8926 C.3       11 UNK         0.0169 
     16 S16        27.1908  -46.6321  -54.7893 S.3       11 UNK        -0.2669 
     17 C17        25.4162  -46.2085  -54.8091 C.3       11 UNK        -0.0850 
     18 CA         24.7810  -46.4671  -56.2050 C.3       10 UNK         0.0855 
     19 C          23.2208  -46.4812  -56.1901 C.2       10 UNK         0.5543 
     20 N          22.5461  -46.1295  -57.2796 N.am      10 UNK        -0.7343 
     21 O          22.6084  -46.8505  -55.1913 O.2       10 UNK        -0.5027 
     22 N          25.3735  -45.6410  -57.2710 N.am      10 UNK        -0.4495 
     23 C          25.2291  -44.3163  -57.4274 C.2       10 UNK         0.4903 
     24 O          24.6775  -43.5812  -56.6084 O.2       10 UNK        -0.4860 
     25 CA         25.7679  -43.7020  -58.7354 C.3       9 UNK         0.0227 
     26 CB         27.1458  -43.0621  -58.4993 C.3       9 UNK        -0.1964 
     27 N          25.8634  -44.6601  -59.8424 N.am      9 UNK        -0.4231 
     28 C          24.8395  -45.3481  -60.3687 C.2       9 UNK         0.5014 
     29 O          23.6620  -45.1863  -60.0427 O.2       9 UNK        -0.5270 
     30 CA         25.1906  -46.4688  -61.3647 C.3       8 UNK         0.0284 
     31 CB         26.5345  -46.2579  -62.1004 C.3       8 UNK        -0.1977 
     32 N          25.1528  -47.7829  -60.7071 N.am      8 UNK        -0.4342 
     33 C          25.8734  -48.1687  -59.6441 C.2       8 UNK         0.5039 
     34 O          26.7217  -47.4618  -59.0865 O.2       8 UNK        -0.5547 
     35 CA         25.5948  -49.5722  -59.0950 C.3       7 UNK         0.0281 
     36 CB         26.1789  -50.6597  -60.0155 C.3       7 UNK        -0.1963 
     37 N          26.2201  -49.6463  -57.7818 N.am      7 UNK        -0.4444 
     38 C          25.9384  -50.4944  -56.7894 C.2       7 UNK         0.5104 
     39 O          25.0629  -51.3586  -56.8570 O.2       7 UNK        -0.5100 
     40 CA         26.7790  -50.3333  -55.5033 C.3       6 UNK         0.0396 
     41 CB         26.8517  -51.6299  -54.6704 C.3       6 UNK        -0.1801 
     42 N          28.1255  -49.7917  -55.7503 N.am      6 UNK        -0.4747 
     43 C          29.0921  -50.3432  -56.5042 C.2       6 UNK         0.5012 
     44 O          28.9852  -51.4302  -57.0733 O.2       6 UNK        -0.5003 
     45 CA         30.3954  -49.5375  -56.6780 C.3       5 UNK         0.0782 
     46 C46        30.3488  -48.7391  -58.0049 C.3       11 UNK        -0.0868 
     47 S47        31.9168  -47.8762  -58.3635 S.3       11 UNK        -0.2515 
     48 C48        31.3928  -46.1328  -58.4063 C.3       11 UNK         0.0199 
     49 N          30.7238  -48.6951  -55.5189 N.am      5 UNK        -0.4607 
     50 C          31.0687  -49.1750  -54.3172 C.2       4 UNK         0.5031 
     51 O          31.0362  -50.3729  -54.0238 O.2       4 UNK        -0.5119 
     52 CA         31.5158  -48.1451  -53.2639 C.3       4 UNK         0.0263 
     53 CB         30.3046  -47.5912  -52.4982 C.3       4 UNK        -0.1967 
     54 N          32.4541  -48.7241  -52.2994 N.am      4 UNK        -0.4237 
     55 C          33.6864  -49.1585  -52.5916 C.2       3 UNK         0.4908 
     56 O          34.2223  -49.0229  -53.6934 O.2       3 UNK        -0.5102 
     57 CA         34.4587  -49.8186  -51.4377 C.3       3 UNK         0.0241 
     58 CB         35.6301  -50.6882  -51.9322 C.3       3 UNK        -0.1971 
     59 N          34.9782  -48.7809  -50.5525 N.am      3 UNK        -0.4139 
     60 C          34.3041  -48.2154  -49.5421 C.2       2 UNK         0.5016 
     61 O          33.1902  -48.5840  -49.1674 O.2       2 UNK        -0.5319 
     62 CA         34.9784  -47.0074  -48.8674 C.3       2 UNK         0.0286 
     63 CB         35.9151  -47.4653  -47.7379 C.3       2 UNK        -0.1963 
     64 N          35.7291  -46.1936  -49.8311 N.am      2 UNK        -0.4790 
     65 C          35.1524  -45.4254  -50.7681 C.2       1 UNK         0.5024 
     66 O          33.9409  -45.2089  -50.8103 O.2       1 UNK        -0.4888 
     67 H67        38.8052  -42.7138  -49.6783 H         1 UNK         0.0892 
     68 H68        40.1588  -43.7030  -50.2290 H         1 UNK         0.0892 
     69 H69        39.7241  -42.2333  -51.1058 H         1 UNK         0.0892 
     70 H70        36.8256  -43.6295  -50.1991 H         1 UNK         0.3107 
     71 H71        36.5883  -45.6284  -52.3023 H         1 UNK         0.0773 
     72 H72        34.7762  -43.1649  -52.4257 H         1 UNK         0.0680 
     73 H73        36.1634  -43.3755  -53.4524 H         1 UNK         0.0680 
     74 H74        32.5003  -44.2101  -52.9182 H         1 UNK         0.0650 
     75 H75        32.9417  -43.0500  -54.1528 H         1 UNK         0.0650 
     76 H76        33.0903  -45.1870  -56.5076 H         1 UNK         0.1397 
     77 H77        28.9276  -45.8769  -57.2563 H         1 UNK         0.1363 
     78 H78        30.1750  -44.2411  -53.5013 H         1 UNK         0.1355 
     79 H79        27.4078  -44.3642  -55.6083 H         1 UNK         0.0707 
     80 H80        27.8528  -44.4881  -53.9245 H         1 UNK         0.0707 
     81 H81        25.2636  -45.1756  -54.4928 H         1 UNK         0.1034 
     82 H82        24.9375  -46.8270  -54.0480 H         1 UNK         0.1034 
     83 H83        25.0349  -47.4909  -56.4757 H         1 UNK         0.0482 
     84 H84        23.0268  -45.8192  -58.1155 H         1 UNK         0.3460 
     85 H85        21.5391  -46.1537  -57.2618 H         1 UNK         0.3460 
     86 H86        25.8728  -46.1585  -57.9899 H         1 UNK         0.2989 
     87 H87        25.0715  -42.9175  -59.0379 H         1 UNK         0.0559 
     88 H88        27.4968  -42.5344  -59.3862 H         1 UNK         0.0848 
     89 H89        27.8969  -43.8054  -58.2311 H         1 UNK         0.0848 
     90 H90        27.1051  -42.3345  -57.6873 H         1 UNK         0.0848 
     91 H91        26.7939  -44.9175  -60.1390 H         1 UNK         0.3144 
     92 H92        24.4005  -46.4689  -62.1174 H         1 UNK         0.0727 
     93 H93        26.6674  -47.0044  -62.8835 H         1 UNK         0.0790 
     94 H94        27.3961  -46.3298  -61.4359 H         1 UNK         0.0790 
     95 H95        26.5685  -45.2804  -62.5837 H         1 UNK         0.0790 
     96 H96        24.4616  -48.4251  -61.0705 H         1 UNK         0.3215 
     97 H97        24.5157  -49.7034  -58.9899 H         1 UNK         0.0863 
     98 H98        25.9939  -51.6579  -59.6182 H         1 UNK         0.0808 
     99 H99        27.2571  -50.5451  -60.1364 H         1 UNK         0.0808 
    100 H100       25.7313  -50.6212  -61.0091 H         1 UNK         0.0808 
    101 H101       26.9149  -48.9235  -57.6340 H         1 UNK         0.3118 
    102 H102       26.2600  -49.5878  -54.8996 H         1 UNK         0.0546 
    103 H103       27.2913  -52.4516  -55.2364 H         1 UNK         0.0828 
    104 H104       25.8575  -51.9491  -54.3557 H         1 UNK         0.0828 
    105 H105       27.4462  -51.4884  -53.7679 H         1 UNK         0.0828 
    106 H106       28.3127  -48.8874  -55.3358 H         1 UNK         0.3005 
    107 H107       31.1965  -50.2754  -56.7667 H         1 UNK         0.1257 
    108 H108       30.1560  -49.4120  -58.8431 H         1 UNK         0.0775 
    109 H109       29.5200  -48.0301  -58.0027 H         1 UNK         0.0775 
    110 H110       32.1991  -45.5344  -58.8332 H         1 UNK         0.0840 
    111 H111       30.5444  -46.0213  -59.0838 H         1 UNK         0.0840 
    112 H112       30.7773  -47.7000  -55.6930 H         1 UNK         0.2987 
    113 H113       32.0224  -47.3226  -53.7730 H         1 UNK         0.0785 
    114 H114       29.7780  -48.3749  -51.9521 H         1 UNK         0.0798 
    115 H115       30.6046  -46.8234  -51.7846 H         1 UNK         0.0798 
    116 H116       29.5882  -47.1338  -53.1787 H         1 UNK         0.0798 
    117 H117       32.1131  -48.8570  -51.3569 H         1 UNK         0.3079 
    118 H118       33.7700  -50.4657  -50.8895 H         1 UNK         0.0794 
    119 H119       35.2768  -51.4664  -52.6100 H         1 UNK         0.0786 
    120 H120       36.1310  -51.1858  -51.1014 H         1 UNK         0.0786 
    121 H121       36.3765  -50.1017  -52.4696 H         1 UNK         0.0786 
    122 H122       35.8717  -48.3852  -50.8044 H         1 UNK         0.3032 
    123 H123       34.1891  -46.3910  -48.4301 H         1 UNK         0.1094 
    124 H124       36.3479  -46.6139  -47.2122 H         1 UNK         0.0794 
    125 H125       35.3728  -48.0580  -46.9997 H         1 UNK         0.0794 
    126 H126       36.7339  -48.0813  -48.1120 H         1 UNK         0.0794 
    127 H127       36.7355  -46.2883  -49.8305 H         1 UNK         0.3016 
@<TRIPOS>BOND
     1    1    2 1    
     2    1   67 1    
     3    1   68 1    
     4    1   69 1    
     5    2    3 2    
     6    2    4 am   BACKBONE|DICT|INTERRES
     7    4    5 1    
     8    4   70 1    
     9    5    6 1    
    10    5   65 1    
    11    5   71 1    
    12    6    7 1    
    13    6   72 1    
    14    6   73 1    
    15    7    8 1    
    16    8    9 1    
    17    8   74 1    
    18    8   75 1    
    19    9   10 ar   
    20    9   14 ar   
    21   10   11 ar   
    22   10   76 1    
    23   11   12 ar   
    24   11   48 1    
    25   12   13 ar   
    26   12   77 1    
    27   13   14 ar   
    28   13   15 1    
    29   14   78 1    
    30   15   16 1    
    31   15   79 1    
    32   15   80 1    
    33   16   17 1    
    34   17   18 1    
    35   17   81 1    
    36   17   82 1    
    37   18   19 1    
    38   18   22 1    
    39   18   83 1    
    40   19   20 am   BACKBONE|DICT|INTERRES
    41   19   21 2    
    42   20   84 1    
    43   20   85 1    
    44   22   23 am   BACKBONE|DICT|INTERRES
    45   22   86 1    
    46   23   24 2    
    47   23   25 1    
    48   25   26 1    
    49   25   27 1    
    50   25   87 1    
    51   26   88 1    
    52   26   89 1    
    53   26   90 1    
    54   27   28 am   BACKBONE|DICT|INTERRES
    55   27   91 1    
    56   28   29 2    
    57   28   30 1    
    58   30   31 1    
    59   30   32 1    
    60   30   92 1    
    61   31   93 1    
    62   31   94 1    
    63   31   95 1    
    64   32   33 am   BACKBONE|DICT|INTERRES
    65   32   96 1    
    66   33   34 2    
    67   33   35 1    
    68   35   36 1    
    69   35   37 1    
    70   35   97 1    
    71   36   98 1    
    72   36   99 1    
    73   36  100 1    
    74   37   38 am   BACKBONE|DICT|INTERRES
    75   37  101 1    
    76   38   39 2    
    77   38   40 1    
    78   40   41 1    
    79   40   42 1    
    80   40  102 1    
    81   41  103 1    
    82   41  104 1    
    83   41  105 1    
    84   42   43 am   BACKBONE|DICT|INTERRES
    85   42  106 1    
    86   43   44 2    
    87   43   45 1    
    88   45   46 1    
    89   45   49 1    
    90   45  107 1    
    91   46   47 1    
    92   46  108 1    
    93   46  109 1    
    94   47   48 1    
    95   48  110 1    
    96   48  111 1    
    97   49   50 am   BACKBONE|DICT|INTERRES
    98   49  112 1    
    99   50   51 2    
   100   50   52 1    
   101   52   53 1    
   102   52   54 1    
   103   52  113 1    
   104   53  114 1    
   105   53  115 1    
   106   53  116 1    
   107   54   55 am   BACKBONE|DICT|INTERRES
   108   54  117 1    
   109   55   56 2    
   110   55   57 1    
   111   57   58 1    
   112   57   59 1    
   113   57  118 1    
   114   58  119 1    
   115   58  120 1    
   116   58  121 1    
   117   59   60 am   BACKBONE|DICT|INTERRES
   118   59  122 1    
   119   60   61 2    
   120   60   62 1    
   121   62   63 1    
   122   62   64 1    
   123   62  123 1    
   124   63  124 1    
   125   63  125 1    
   126   63  126 1    
   127   64   65 am   BACKBONE|DICT|INTERRES
   128   64  127 1    
   129   65   66 2    
@<TRIPOS>SUBSTRUCTURE
     1 UNK         1 GROUP             0       ****    0 ROOT    
