@<TRIPOS>MOLECULE
3R134
127   129    1
SMALL
USER_CHARGES


@<TRIPOS>ATOM
      1 CA         30.3006  -43.8642  -48.8233 C.3       0 UNK        -0.1968 
      2 C          31.4733  -44.8035  -49.0652 C.2       0 UNK         0.4852 
      3 O          32.0213  -45.3568  -48.1102 O.2       0 UNK        -0.5359 
      4 N          31.8639  -44.9804  -50.3332 N.am      1 UNK        -0.4300 
      5 CA         32.9263  -45.8944  -50.7610 C.3       1 UNK         0.0863 
      6 C6         33.4598  -45.5381  -52.1722 C.3       11 UNK        -0.0953 
      7 S7         34.2644  -43.9039  -52.2455 S.3       11 UNK        -0.2369 
      8 C8         32.9461  -42.8379  -52.9335 C.3       11 UNK         0.0226 
      9 C9         32.5009  -43.1499  -54.3651 C.ar      11 UNK        -0.0699 
     10 C10        33.3280  -43.8048  -55.2877 C.ar      11 UNK        -0.0804 
     11 C11        32.8946  -44.0401  -56.5970 C.ar      11 UNK        -0.0871 
     12 C12        31.6187  -43.6209  -56.9850 C.ar      11 UNK        -0.1008 
     13 C13        30.7842  -42.9556  -56.0820 C.ar      11 UNK        -0.0735 
     14 C14        31.2346  -42.7211  -54.7787 C.ar      11 UNK        -0.0945 
     15 C15        29.4190  -42.4449  -56.5277 C.3       11 UNK         0.0169 
     16 S16        28.0550  -43.2464  -55.6281 S.3       11 UNK        -0.2669 
     17 C17        26.6005  -42.4428  -56.3934 C.3       11 UNK        -0.0850 
     18 CA         25.8103  -43.3543  -57.3729 C.3       10 UNK         0.0855 
     19 C          26.5181  -43.4975  -58.7532 C.2       10 UNK         0.5543 
     20 N          26.8586  -44.6910  -59.2194 N.am      10 UNK        -0.7343 
     21 O          26.7459  -42.4946  -59.4258 O.2       10 UNK        -0.5027 
     22 N          25.4070  -44.6106  -56.7247 N.am      10 UNK        -0.4495 
     23 C          24.4122  -45.4126  -57.1199 C.2       10 UNK         0.4903 
     24 O          23.6660  -45.1830  -58.0737 O.2       10 UNK        -0.4860 
     25 CA         24.2141  -46.6887  -56.2808 C.3       9 UNK         0.0227 
     26 CB         22.7538  -46.8141  -55.8125 C.3       9 UNK        -0.1964 
     27 N          24.6156  -47.9389  -56.9386 N.am      9 UNK        -0.4231 
     28 C          25.7198  -48.1622  -57.6660 C.2       9 UNK         0.5014 
     29 O          26.5151  -47.2941  -58.0239 O.2       9 UNK        -0.5270 
     30 CA         26.0483  -49.6351  -57.9584 C.3       8 UNK         0.0284 
     31 CB         26.6556  -49.8258  -59.3596 C.3       8 UNK        -0.1977 
     32 N          27.0119  -50.0718  -56.9510 N.am      8 UNK        -0.4342 
     33 C          26.6893  -50.3805  -55.6868 C.2       8 UNK         0.5039 
     34 O          25.5393  -50.6135  -55.3108 O.2       8 UNK        -0.5547 
     35 CA         27.8316  -50.3503  -54.6564 C.3       7 UNK         0.0281 
     36 CB         28.6239  -51.6658  -54.6790 C.3       7 UNK        -0.1963 
     37 N          28.7326  -49.2106  -54.8674 N.am      7 UNK        -0.4444 
     38 C          28.3663  -47.9221  -54.7608 C.2       7 UNK         0.5104 
     39 O          27.2556  -47.5586  -54.3728 O.2       7 UNK        -0.5100 
     40 CA         29.3900  -46.8531  -55.1656 C.3       6 UNK         0.0396 
     41 CB         30.1938  -46.3814  -53.9511 C.3       6 UNK        -0.1801 
     42 N          30.3102  -47.3385  -56.1925 N.am      6 UNK        -0.4747 
     43 C          30.2617  -46.9867  -57.4854 C.2       6 UNK         0.5012 
     44 O          29.4978  -46.1364  -57.9383 O.2       6 UNK        -0.5003 
     45 CA         31.2228  -47.6979  -58.4615 C.3       5 UNK         0.0782 
     46 C46        32.3778  -46.7656  -58.9080 C.3       11 UNK        -0.0868 
     47 S47        33.6642  -46.5075  -57.6325 S.3       11 UNK        -0.2515 
     48 C48        33.8322  -44.6955  -57.6020 C.3       11 UNK         0.0199 
     49 N          31.7272  -48.9849  -57.9741 N.am      5 UNK        -0.4607 
     50 C          30.9929  -50.0778  -57.7330 C.2       4 UNK         0.5031 
     51 O          29.7790  -50.1493  -57.9229 O.2       4 UNK        -0.5119 
     52 CA         31.7370  -51.2771  -57.1190 C.3       4 UNK         0.0263 
     53 CB         32.2931  -52.1836  -58.2283 C.3       4 UNK        -0.1967 
     54 N          32.8208  -50.9081  -56.1984 N.am      4 UNK        -0.4237 
     55 C          32.6941  -50.1289  -55.1141 C.2       3 UNK         0.4908 
     56 O          31.6417  -49.5747  -54.7854 O.2       3 UNK        -0.5102 
     57 CA         33.9839  -49.8799  -54.3149 C.3       3 UNK         0.0241 
     58 CB         34.8004  -48.7490  -54.9613 C.3       3 UNK        -0.1971 
     59 N          33.7330  -49.5236  -52.9190 N.am      3 UNK        -0.4139 
     60 C          33.2176  -50.3269  -51.9785 C.2       2 UNK         0.5016 
     61 O          32.8954  -51.4988  -52.1805 O.2       2 UNK        -0.5319 
     62 CA         33.0760  -49.7406  -50.5585 C.3       2 UNK         0.0286 
     63 CB         34.0293  -50.4533  -49.5836 C.3       2 UNK        -0.1963 
     64 N          33.3415  -48.2964  -50.5036 N.am      2 UNK        -0.4790 
     65 C          32.4206  -47.3516  -50.7344 C.2       1 UNK         0.5024 
     66 O          31.2348  -47.5990  -50.9640 O.2       1 UNK        -0.4888 
     67 H67        29.9240  -43.4333  -49.7508 H         1 UNK         0.0892 
     68 H68        29.4832  -44.4014  -48.3429 H         1 UNK         0.0892 
     69 H69        30.6031  -43.0472  -48.1688 H         1 UNK         0.0892 
     70 H70        31.3486  -44.5348  -51.0767 H         1 UNK         0.3107 
     71 H71        33.7528  -45.8108  -50.0513 H         1 UNK         0.0773 
     72 H72        34.2089  -46.2651  -52.4908 H         1 UNK         0.0680 
     73 H73        32.6670  -45.5858  -52.9158 H         1 UNK         0.0680 
     74 H74        33.3025  -41.8075  -52.9101 H         1 UNK         0.0650 
     75 H75        32.0872  -42.8765  -52.2630 H         1 UNK         0.0650 
     76 H76        34.3201  -44.1210  -54.9987 H         1 UNK         0.1397 
     77 H77        31.2806  -43.7972  -57.9968 H         1 UNK         0.1363 
     78 H78        30.5917  -42.1960  -54.0853 H         1 UNK         0.1355 
     79 H79        29.2792  -42.6085  -57.5975 H         1 UNK         0.0707 
     80 H80        29.3732  -41.3667  -56.3680 H         1 UNK         0.0707 
     81 H81        25.9376  -42.1373  -55.5826 H         1 UNK         0.1034 
     82 H82        26.8975  -41.5116  -56.8798 H         1 UNK         0.1034 
     83 H83        24.8839  -42.8229  -57.5994 H         1 UNK         0.0482 
     84 H84        26.7194  -45.5323  -58.6633 H         1 UNK         0.3460 
     85 H85        27.3214  -44.7582  -60.1100 H         1 UNK         0.3460 
     86 H86        26.0043  -44.9113  -55.9676 H         1 UNK         0.2989 
     87 H87        24.8340  -46.6031  -55.3863 H         1 UNK         0.0559 
     88 H88        22.0762  -46.9903  -56.6491 H         1 UNK         0.0848 
     89 H89        22.4234  -45.9021  -55.3132 H         1 UNK         0.0848 
     90 H90        22.6309  -47.6316  -55.1019 H         1 UNK         0.0848 
     91 H91        24.0729  -48.7514  -56.6817 H         1 UNK         0.3144 
     92 H92        25.1393  -50.2368  -57.8918 H         1 UNK         0.0727 
     93 H93        26.8782  -50.8751  -59.5539 H         1 UNK         0.0790 
     94 H94        27.5819  -49.2623  -59.4821 H         1 UNK         0.0790 
     95 H95        25.9636  -49.4892  -60.1322 H         1 UNK         0.0790 
     96 H96        27.9917  -49.9183  -57.1783 H         1 UNK         0.3215 
     97 H97        27.3887  -50.2352  -53.6648 H         1 UNK         0.0863 
     98 H98        29.5003  -51.6214  -54.0315 H         1 UNK         0.0808 
     99 H99        28.9546  -51.9170  -55.6857 H         1 UNK         0.0808 
    100 H100       28.0034  -52.4929  -54.3319 H         1 UNK         0.0808 
    101 H101       29.6990  -49.4195  -55.0957 H         1 UNK         0.3118 
    102 H102       28.8235  -46.0013  -55.5418 H         1 UNK         0.0546 
    103 H103       29.5383  -46.0672  -53.1380 H         1 UNK         0.0828 
    104 H104       30.8127  -45.5273  -54.2192 H         1 UNK         0.0828 
    105 H105       30.8427  -47.1699  -53.5697 H         1 UNK         0.0828 
    106 H106       30.9774  -48.0446  -55.9010 H         1 UNK         0.3005 
    107 H107       30.6206  -47.9170  -59.3467 H         1 UNK         0.1257 
    108 H108       31.9841  -45.8064  -59.2488 H         1 UNK         0.0775 
    109 H109       32.8699  -47.1984  -59.7802 H         1 UNK         0.0775 
    110 H110       34.8649  -44.4533  -57.3464 H         1 UNK         0.0840 
    111 H111       33.6740  -44.2839  -58.5999 H         1 UNK         0.0840 
    112 H112       32.7139  -49.0107  -57.7623 H         1 UNK         0.2987 
    113 H113       31.0150  -51.8565  -56.5447 H         1 UNK         0.0785 
    114 H114       31.5018  -52.4909  -58.9138 H         1 UNK         0.0798 
    115 H115       32.7317  -53.0929  -57.8169 H         1 UNK         0.0798 
    116 H116       33.0578  -51.6780  -58.8194 H         1 UNK         0.0798 
    117 H117       33.7285  -51.3029  -56.4006 H         1 UNK         0.3079 
    118 H118       34.5777  -50.7964  -54.3238 H         1 UNK         0.0794 
    119 H119       34.2594  -47.8017  -54.9412 H         1 UNK         0.0786 
    120 H120       35.0313  -48.9705  -56.0041 H         1 UNK         0.0786 
    121 H121       35.7510  -48.6015  -54.4482 H         1 UNK         0.0786 
    122 H122       33.9441  -48.5754  -52.6531 H         1 UNK         0.3032 
    123 H123       32.0508  -49.9345  -50.2337 H         1 UNK         0.1094 
    124 H124       35.0741  -50.3148  -49.8645 H         1 UNK         0.0794 
    125 H125       33.9027  -50.0857  -48.5651 H         1 UNK         0.0794 
    126 H126       33.8375  -51.5271  -49.5632 H         1 UNK         0.0794 
    127 H127       34.2934  -48.0190  -50.3057 H         1 UNK         0.3016 
@<TRIPOS>BOND
     1    1    2 1    
     2    1   67 1    
     3    1   68 1    
     4    1   69 1    
     5    2    3 2    
     6    2    4 am   BACKBONE|DICT|INTERRES
     7    4    5 1    
     8    4   70 1    
     9    5    6 1    
    10    5   65 1    
    11    5   71 1    
    12    6    7 1    
    13    6   72 1    
    14    6   73 1    
    15    7    8 1    
    16    8    9 1    
    17    8   74 1    
    18    8   75 1    
    19    9   10 ar   
    20    9   14 ar   
    21   10   11 ar   
    22   10   76 1    
    23   11   12 ar   
    24   11   48 1    
    25   12   13 ar   
    26   12   77 1    
    27   13   14 ar   
    28   13   15 1    
    29   14   78 1    
    30   15   16 1    
    31   15   79 1    
    32   15   80 1    
    33   16   17 1    
    34   17   18 1    
    35   17   81 1    
    36   17   82 1    
    37   18   19 1    
    38   18   22 1    
    39   18   83 1    
    40   19   20 am   BACKBONE|DICT|INTERRES
    41   19   21 2    
    42   20   84 1    
    43   20   85 1    
    44   22   23 am   BACKBONE|DICT|INTERRES
    45   22   86 1    
    46   23   24 2    
    47   23   25 1    
    48   25   26 1    
    49   25   27 1    
    50   25   87 1    
    51   26   88 1    
    52   26   89 1    
    53   26   90 1    
    54   27   28 am   BACKBONE|DICT|INTERRES
    55   27   91 1    
    56   28   29 2    
    57   28   30 1    
    58   30   31 1    
    59   30   32 1    
    60   30   92 1    
    61   31   93 1    
    62   31   94 1    
    63   31   95 1    
    64   32   33 am   BACKBONE|DICT|INTERRES
    65   32   96 1    
    66   33   34 2    
    67   33   35 1    
    68   35   36 1    
    69   35   37 1    
    70   35   97 1    
    71   36   98 1    
    72   36   99 1    
    73   36  100 1    
    74   37   38 am   BACKBONE|DICT|INTERRES
    75   37  101 1    
    76   38   39 2    
    77   38   40 1    
    78   40   41 1    
    79   40   42 1    
    80   40  102 1    
    81   41  103 1    
    82   41  104 1    
    83   41  105 1    
    84   42   43 am   BACKBONE|DICT|INTERRES
    85   42  106 1    
    86   43   44 2    
    87   43   45 1    
    88   45   46 1    
    89   45   49 1    
    90   45  107 1    
    91   46   47 1    
    92   46  108 1    
    93   46  109 1    
    94   47   48 1    
    95   48  110 1    
    96   48  111 1    
    97   49   50 am   BACKBONE|DICT|INTERRES
    98   49  112 1    
    99   50   51 2    
   100   50   52 1    
   101   52   53 1    
   102   52   54 1    
   103   52  113 1    
   104   53  114 1    
   105   53  115 1    
   106   53  116 1    
   107   54   55 am   BACKBONE|DICT|INTERRES
   108   54  117 1    
   109   55   56 2    
   110   55   57 1    
   111   57   58 1    
   112   57   59 1    
   113   57  118 1    
   114   58  119 1    
   115   58  120 1    
   116   58  121 1    
   117   59   60 am   BACKBONE|DICT|INTERRES
   118   59  122 1    
   119   60   61 2    
   120   60   62 1    
   121   62   63 1    
   122   62   64 1    
   123   62  123 1    
   124   63  124 1    
   125   63  125 1    
   126   63  126 1    
   127   64   65 am   BACKBONE|DICT|INTERRES
   128   64  127 1    
   129   65   66 2    
@<TRIPOS>SUBSTRUCTURE
     1 UNK         1 GROUP             0       ****    0 ROOT    
