@<TRIPOS>MOLECULE
3R134
127   129    1
SMALL
USER_CHARGES


@<TRIPOS>ATOM
      1 CA         36.8772  -46.9438  -49.8106 C.3       0 UNK        -0.1968 
      2 C          35.8614  -46.4733  -50.8413 C.2       0 UNK         0.4852 
      3 O          34.9808  -45.6799  -50.5081 O.2       0 UNK        -0.5359 
      4 N          35.9754  -46.9657  -52.0848 N.am      1 UNK        -0.4300 
      5 CA         35.1184  -46.6415  -53.2368 C.3       1 UNK         0.0863 
      6 C6         35.1519  -45.1309  -53.6002 C.3       11 UNK        -0.0953 
      7 S7         34.8944  -44.7943  -55.3763 S.3       11 UNK        -0.2369 
      8 C8         34.4361  -43.0306  -55.3529 C.3       11 UNK         0.0226 
      9 C9         32.9571  -42.8134  -55.0565 C.ar      11 UNK        -0.0699 
     10 C10        32.5082  -42.7186  -53.7364 C.ar      11 UNK        -0.0804 
     11 C11        31.1555  -42.5148  -53.4562 C.ar      11 UNK        -0.0871 
     12 C12        30.2567  -42.3420  -54.5107 C.ar      11 UNK        -0.1008 
     13 C13        30.6834  -42.4461  -55.8398 C.ar      11 UNK        -0.0735 
     14 C14        32.0374  -42.6836  -56.1033 C.ar      11 UNK        -0.0945 
     15 C15        29.6971  -42.2938  -56.9952 C.3       11 UNK         0.0169 
     16 S16        28.1131  -43.1388  -56.6811 S.3       11 UNK        -0.2669 
     17 C17        27.2610  -42.9807  -58.2894 C.3       11 UNK        -0.0850 
     18 CA         27.2397  -44.2933  -59.1235 C.3       10 UNK         0.0855 
     19 C          28.5791  -44.5605  -59.8697 C.2       10 UNK         0.5543 
     20 N          29.0930  -45.7828  -59.9078 N.am      10 UNK        -0.7343 
     21 O          29.1539  -43.6441  -60.4526 O.2       10 UNK        -0.5027 
     22 N          26.7814  -45.4300  -58.3128 N.am      10 UNK        -0.4495 
     23 C          25.7296  -46.2150  -58.5528 C.2       10 UNK         0.4903 
     24 O          24.9712  -46.0977  -59.5176 O.2       10 UNK        -0.4860 
     25 CA         25.4907  -47.3279  -57.5149 C.3       9 UNK         0.0227 
     26 CB         24.0030  -47.4230  -57.1341 C.3       9 UNK        -0.1964 
     27 N          25.9636  -48.6588  -57.9119 N.am      9 UNK        -0.4231 
     28 C          27.0924  -48.9924  -58.5557 C.2       9 UNK         0.5014 
     29 O          27.9041  -48.1971  -59.0289 O.2       9 UNK        -0.5270 
     30 CA         27.3828  -50.4985  -58.6192 C.3       8 UNK         0.0284 
     31 CB         28.4928  -50.8533  -59.6268 C.3       8 UNK        -0.1977 
     32 N          27.7699  -50.9588  -57.2851 N.am      8 UNK        -0.4342 
     33 C          26.9033  -51.3419  -56.3387 C.2       8 UNK         0.5039 
     34 O          25.6853  -51.3826  -56.5238 O.2       8 UNK        -0.5547 
     35 CA         27.4733  -51.7426  -54.9670 C.3       7 UNK         0.0281 
     36 CB         28.7356  -52.6151  -55.0699 C.3       7 UNK        -0.1963 
     37 N          27.7263  -50.5821  -54.1060 N.am      7 UNK        -0.4444 
     38 C          26.7597  -49.9114  -53.4610 C.2       7 UNK         0.5104 
     39 O          25.5582  -50.1506  -53.5842 O.2       7 UNK        -0.5100 
     40 CA         27.1881  -48.8195  -52.4727 C.3       6 UNK         0.0396 
     41 CB         27.7236  -49.4451  -51.1731 C.3       6 UNK        -0.1801 
     42 N          28.1990  -47.9202  -53.0305 N.am      6 UNK        -0.4747 
     43 C          28.0191  -46.6023  -53.2045 C.2       6 UNK         0.5012 
     44 O          26.9454  -46.0282  -53.0149 O.2       6 UNK        -0.5003 
     45 CA         29.2448  -45.7720  -53.6384 C.3       5 UNK         0.0782 
     46 C46        30.0657  -45.2896  -52.4096 C.3       11 UNK        -0.0868 
     47 S47        29.3737  -43.7584  -51.6874 S.3       11 UNK        -0.2515 
     48 C48        30.6686  -42.5089  -52.0123 C.3       11 UNK         0.0199 
     49 N          30.0833  -46.4512  -54.6294 N.am      5 UNK        -0.4607 
     50 C          29.7000  -46.7051  -55.8889 C.2       4 UNK         0.5031 
     51 O          28.5667  -46.4900  -56.3134 O.2       4 UNK        -0.5119 
     52 CA         30.7610  -47.2691  -56.8425 C.3       4 UNK         0.0263 
     53 CB         31.6737  -46.1376  -57.3422 C.3       4 UNK        -0.1967 
     54 N          31.5726  -48.2953  -56.1901 N.am      4 UNK        -0.4237 
     55 C          31.3439  -49.6130  -56.2790 C.2       3 UNK         0.4908 
     56 O          30.4563  -50.1168  -56.9642 O.2       3 UNK        -0.5102 
     57 CA         32.2359  -50.5370  -55.4298 C.3       3 UNK         0.0241 
     58 CB         33.5485  -50.8427  -56.1688 C.3       3 UNK        -0.1971 
     59 N          32.5369  -49.9940  -54.1058 N.am      3 UNK        -0.4139 
     60 C          31.6326  -49.5979  -53.1983 C.2       2 UNK         0.5016 
     61 O          30.4153  -49.7393  -53.3284 O.2       2 UNK        -0.5319 
     62 CA         32.1798  -48.8513  -51.9687 C.3       2 UNK         0.0286 
     63 CB         32.3158  -49.8088  -50.7755 C.3       2 UNK        -0.1963 
     64 N          33.4644  -48.1736  -52.2036 N.am      2 UNK        -0.4790 
     65 C          33.6819  -47.2103  -53.1157 C.2       1 UNK         0.5024 
     66 O          32.8007  -46.8189  -53.8825 O.2       1 UNK        -0.4888 
     67 H67        36.3700  -47.4366  -48.9816 H         1 UNK         0.0892 
     68 H68        37.5955  -47.6455  -50.2341 H         1 UNK         0.0892 
     69 H69        37.4296  -46.0923  -49.4140 H         1 UNK         0.0892 
     70 H70        36.7242  -47.6162  -52.2823 H         1 UNK         0.3107 
     71 H71        35.5672  -47.1874  -54.0681 H         1 UNK         0.0773 
     72 H72        36.1245  -44.7065  -53.3465 H         1 UNK         0.0680 
     73 H73        34.4275  -44.5877  -52.9976 H         1 UNK         0.0680 
     74 H74        34.6826  -42.5982  -56.3237 H         1 UNK         0.0650 
     75 H75        35.0510  -42.5010  -54.6235 H         1 UNK         0.0650 
     76 H76        33.2103  -42.8093  -52.9209 H         1 UNK         0.1397 
     77 H77        29.2136  -42.1624  -54.2898 H         1 UNK         0.1363 
     78 H78        32.3803  -42.7607  -57.1260 H         1 UNK         0.1355 
     79 H79        29.5120  -41.2330  -57.1677 H         1 UNK         0.0707 
     80 H80        30.1293  -42.6942  -57.9134 H         1 UNK         0.0707 
     81 H81        26.2325  -42.6861  -58.0767 H         1 UNK         0.1034 
     82 H82        27.6812  -42.1500  -58.8595 H         1 UNK         0.1034 
     83 H83        26.5212  -44.1333  -59.9289 H         1 UNK         0.0482 
     84 H84        28.6055  -46.5697  -59.4808 H         1 UNK         0.3460 
     85 H85        29.9509  -45.9399  -60.4095 H         1 UNK         0.3460 
     86 H86        27.3950  -45.6737  -57.5361 H         1 UNK         0.2989 
     87 H87        26.0333  -47.0653  -56.6055 H         1 UNK         0.0559 
     88 H88        23.6151  -46.4502  -56.8285 H         1 UNK         0.0848 
     89 H89        23.8486  -48.1075  -56.2995 H         1 UNK         0.0848 
     90 H90        23.3937  -47.7688  -57.9702 H         1 UNK         0.0848 
     91 H91        25.4304  -49.4362  -57.5397 H         1 UNK         0.3144 
     92 H92        26.4722  -51.0081  -58.9422 H         1 UNK         0.0727 
     93 H93        29.4365  -50.3632  -59.3857 H         1 UNK         0.0790 
     94 H94        28.2147  -50.5414  -60.6342 H         1 UNK         0.0790 
     95 H95        28.6723  -51.9279  -59.6563 H         1 UNK         0.0790 
     96 H96        28.7542  -50.8365  -57.0500 H         1 UNK         0.3215 
     97 H97        26.7113  -52.3581  -54.4828 H         1 UNK         0.0863 
     98 H98        29.0477  -52.9741  -54.0890 H         1 UNK         0.0808 
     99 H99        29.5718  -52.0765  -55.5055 H         1 UNK         0.0808 
    100 H100       28.5533  -53.4920  -55.6926 H         1 UNK         0.0808 
    101 H101       28.6962  -50.3285  -53.9334 H         1 UNK         0.3118 
    102 H102       26.2861  -48.2627  -52.2105 H         1 UNK         0.0546 
    103 H103       27.9562  -48.6793  -50.4332 H         1 UNK         0.0828 
    104 H104       28.6275  -50.0310  -51.3418 H         1 UNK         0.0828 
    105 H105       26.9834  -50.1109  -50.7274 H         1 UNK         0.0828 
    106 H106       29.0990  -48.3375  -53.2504 H         1 UNK         0.3005 
    107 H107       28.8514  -44.8900  -54.1500 H         1 UNK         0.1257 
    108 H108       31.1021  -45.1017  -52.6907 H         1 UNK         0.0775 
    109 H109       30.1165  -46.0543  -51.6327 H         1 UNK         0.0775 
    110 H110       30.2759  -41.5201  -51.7719 H         1 UNK         0.0840 
    111 H111       31.4967  -42.6857  -51.3240 H         1 UNK         0.0840 
    112 H112       31.0523  -46.6122  -54.3669 H         1 UNK         0.2987 
    113 H113       30.2453  -47.6934  -57.7067 H         1 UNK         0.0785 
    114 H114       32.3931  -46.5016  -58.0753 H         1 UNK         0.0798 
    115 H115       32.2296  -45.6776  -56.5245 H         1 UNK         0.0798 
    116 H116       31.0905  -45.3491  -57.8198 H         1 UNK         0.0798 
    117 H117       32.2836  -47.9633  -55.5495 H         1 UNK         0.3079 
    118 H118       31.7078  -51.4785  -55.2799 H         1 UNK         0.0794 
    119 H119       33.3501  -51.2696  -57.1531 H         1 UNK         0.0786 
    120 H120       34.1541  -51.5653  -55.6214 H         1 UNK         0.0786 
    121 H121       34.1489  -49.9444  -56.3185 H         1 UNK         0.0786 
    122 H122       33.5106  -49.8417  -53.8893 H         1 UNK         0.3032 
    123 H123       31.4463  -48.0858  -51.7099 H         1 UNK         0.1094 
    124 H124       32.6062  -49.2757  -49.8699 H         1 UNK         0.0794 
    125 H125       31.3679  -50.3068  -50.5651 H         1 UNK         0.0794 
    126 H126       33.0580  -50.5859  -50.9622 H         1 UNK         0.0794 
    127 H127       34.2353  -48.4432  -51.6098 H         1 UNK         0.3016 
@<TRIPOS>BOND
     1    1    2 1    
     2    1   67 1    
     3    1   68 1    
     4    1   69 1    
     5    2    3 2    
     6    2    4 am   BACKBONE|DICT|INTERRES
     7    4    5 1    
     8    4   70 1    
     9    5    6 1    
    10    5   65 1    
    11    5   71 1    
    12    6    7 1    
    13    6   72 1    
    14    6   73 1    
    15    7    8 1    
    16    8    9 1    
    17    8   74 1    
    18    8   75 1    
    19    9   10 ar   
    20    9   14 ar   
    21   10   11 ar   
    22   10   76 1    
    23   11   12 ar   
    24   11   48 1    
    25   12   13 ar   
    26   12   77 1    
    27   13   14 ar   
    28   13   15 1    
    29   14   78 1    
    30   15   16 1    
    31   15   79 1    
    32   15   80 1    
    33   16   17 1    
    34   17   18 1    
    35   17   81 1    
    36   17   82 1    
    37   18   19 1    
    38   18   22 1    
    39   18   83 1    
    40   19   20 am   BACKBONE|DICT|INTERRES
    41   19   21 2    
    42   20   84 1    
    43   20   85 1    
    44   22   23 am   BACKBONE|DICT|INTERRES
    45   22   86 1    
    46   23   24 2    
    47   23   25 1    
    48   25   26 1    
    49   25   27 1    
    50   25   87 1    
    51   26   88 1    
    52   26   89 1    
    53   26   90 1    
    54   27   28 am   BACKBONE|DICT|INTERRES
    55   27   91 1    
    56   28   29 2    
    57   28   30 1    
    58   30   31 1    
    59   30   32 1    
    60   30   92 1    
    61   31   93 1    
    62   31   94 1    
    63   31   95 1    
    64   32   33 am   BACKBONE|DICT|INTERRES
    65   32   96 1    
    66   33   34 2    
    67   33   35 1    
    68   35   36 1    
    69   35   37 1    
    70   35   97 1    
    71   36   98 1    
    72   36   99 1    
    73   36  100 1    
    74   37   38 am   BACKBONE|DICT|INTERRES
    75   37  101 1    
    76   38   39 2    
    77   38   40 1    
    78   40   41 1    
    79   40   42 1    
    80   40  102 1    
    81   41  103 1    
    82   41  104 1    
    83   41  105 1    
    84   42   43 am   BACKBONE|DICT|INTERRES
    85   42  106 1    
    86   43   44 2    
    87   43   45 1    
    88   45   46 1    
    89   45   49 1    
    90   45  107 1    
    91   46   47 1    
    92   46  108 1    
    93   46  109 1    
    94   47   48 1    
    95   48  110 1    
    96   48  111 1    
    97   49   50 am   BACKBONE|DICT|INTERRES
    98   49  112 1    
    99   50   51 2    
   100   50   52 1    
   101   52   53 1    
   102   52   54 1    
   103   52  113 1    
   104   53  114 1    
   105   53  115 1    
   106   53  116 1    
   107   54   55 am   BACKBONE|DICT|INTERRES
   108   54  117 1    
   109   55   56 2    
   110   55   57 1    
   111   57   58 1    
   112   57   59 1    
   113   57  118 1    
   114   58  119 1    
   115   58  120 1    
   116   58  121 1    
   117   59   60 am   BACKBONE|DICT|INTERRES
   118   59  122 1    
   119   60   61 2    
   120   60   62 1    
   121   62   63 1    
   122   62   64 1    
   123   62  123 1    
   124   63  124 1    
   125   63  125 1    
   126   63  126 1    
   127   64   65 am   BACKBONE|DICT|INTERRES
   128   64  127 1    
   129   65   66 2    
@<TRIPOS>SUBSTRUCTURE
     1 UNK         1 GROUP             0       ****    0 ROOT    
