@<TRIPOS>MOLECULE
3R134
127   129    1
SMALL
USER_CHARGES


@<TRIPOS>ATOM
      1 CA         38.7835  -47.1135  -51.0587 C.3       0 UNK        -0.1968 
      2 C          37.5190  -46.4182  -51.5401 C.2       0 UNK         0.4852 
      3 O          36.9168  -45.6555  -50.7841 O.2       0 UNK        -0.5359 
      4 N          37.0981  -46.6936  -52.7831 N.am      1 UNK        -0.4300 
      5 CA         35.9403  -46.1283  -53.4983 C.3       1 UNK         0.0863 
      6 C6         36.0013  -44.5798  -53.6370 C.3       11 UNK        -0.0953 
      7 S7         35.4646  -43.9942  -55.2814 S.3       11 UNK        -0.2369 
      8 C8         34.2497  -42.6999  -54.8736 C.3       11 UNK         0.0226 
      9 C9         32.8273  -43.2399  -54.8505 C.ar      11 UNK        -0.0699 
     10 C10        32.2643  -43.7064  -53.6589 C.ar      11 UNK        -0.0804 
     11 C11        30.9522  -44.1915  -53.6275 C.ar      11 UNK        -0.0871 
     12 C12        30.2078  -44.2059  -54.8147 C.ar      11 UNK        -0.1008 
     13 C13        30.7582  -43.7469  -56.0131 C.ar      11 UNK        -0.0735 
     14 C14        32.0679  -43.2597  -56.0248 C.ar      11 UNK        -0.0945 
     15 C15        29.9424  -43.8134  -57.2949 C.3       11 UNK         0.0169 
     16 S16        28.7532  -42.4415  -57.3925 S.3       11 UNK        -0.2669 
     17 C17        27.9290  -42.7987  -58.9826 C.3       11 UNK        -0.0850 
     18 CA         26.4635  -43.2818  -58.8116 C.3       10 UNK         0.0855 
     19 C          25.7406  -43.3583  -60.1908 C.2       10 UNK         0.5543 
     20 N          25.2653  -44.5129  -60.6444 N.am      10 UNK        -0.7343 
     21 O          25.6047  -42.3397  -60.8639 O.2       10 UNK        -0.5027 
     22 N          26.3868  -44.5161  -58.0146 N.am      10 UNK        -0.4495 
     23 C          25.2873  -44.9697  -57.3989 C.2       10 UNK         0.4903 
     24 O          24.2296  -44.3412  -57.3362 O.2       10 UNK        -0.4860 
     25 CA         25.3941  -46.3693  -56.7576 C.3       9 UNK         0.0227 
     26 CB         24.0219  -47.0483  -56.5669 C.3       9 UNK        -0.1964 
     27 N          26.3215  -47.2651  -57.4645 N.am      9 UNK        -0.4231 
     28 C          26.2532  -47.6563  -58.7467 C.2       9 UNK         0.5014 
     29 O          25.3678  -47.3030  -59.5265 O.2       9 UNK        -0.5270 
     30 CA         27.3806  -48.5591  -59.2636 C.3       8 UNK         0.0284 
     31 CB         28.5742  -47.7047  -59.7268 C.3       8 UNK        -0.1977 
     32 N          27.8321  -49.5181  -58.2491 N.am      8 UNK        -0.4342 
     33 C          27.7112  -50.8476  -58.3572 C.2       8 UNK         0.5039 
     34 O          27.1667  -51.4126  -59.3073 O.2       8 UNK        -0.5547 
     35 CA         28.3208  -51.7098  -57.2390 C.3       7 UNK         0.0281 
     36 CB         29.8202  -51.9392  -57.4890 C.3       7 UNK        -0.1963 
     37 N          28.1239  -51.1803  -55.8875 N.am      7 UNK        -0.4444 
     38 C          26.9524  -51.2068  -55.2348 C.2       7 UNK         0.5104 
     39 O          25.8907  -51.5684  -55.7426 O.2       7 UNK        -0.5100 
     40 CA         26.9724  -50.7849  -53.7575 C.3       6 UNK         0.0396 
     41 CB         27.5956  -51.8854  -52.8826 C.3       6 UNK        -0.1801 
     42 N          27.7107  -49.5368  -53.5767 N.am      6 UNK        -0.4747 
     43 C          27.1505  -48.3192  -53.6197 C.2       6 UNK         0.5012 
     44 O          25.9375  -48.1307  -53.7087 O.2       6 UNK        -0.5003 
     45 CA         28.0934  -47.0968  -53.5865 C.3       5 UNK         0.0782 
     46 C46        28.1639  -46.4840  -52.1646 C.3       11 UNK        -0.0868 
     47 S47        28.5734  -44.7059  -52.1750 S.3       11 UNK        -0.2515 
     48 C48        30.3949  -44.7164  -52.3033 C.3       11 UNK         0.0199 
     49 N          29.4223  -47.4157  -54.1260 N.am      5 UNK        -0.4607 
     50 C          29.6567  -47.7092  -55.4132 C.2       4 UNK         0.5031 
     51 O          28.7849  -47.6747  -56.2798 O.2       4 UNK        -0.5119 
     52 CA         31.0628  -48.1865  -55.8074 C.3       4 UNK         0.0263 
     53 CB         31.8718  -47.0531  -56.4515 C.3       4 UNK        -0.1967 
     54 N          31.8133  -48.7727  -54.6952 N.am      4 UNK        -0.4237 
     55 C          31.4868  -49.9274  -54.0944 C.2       3 UNK         0.4908 
     56 O          30.5093  -50.6025  -54.4212 O.2       3 UNK        -0.5102 
     57 CA         32.3602  -50.4000  -52.9172 C.3       3 UNK         0.0241 
     58 CB         33.4197  -51.3983  -53.4088 C.3       3 UNK        -0.1971 
     59 N          33.0188  -49.3121  -52.1880 N.am      3 UNK        -0.4139 
     60 C          32.3787  -48.3420  -51.5205 C.2       2 UNK         0.5016 
     61 O          31.1541  -48.2859  -51.4097 O.2       2 UNK        -0.5319 
     62 CA         33.2397  -47.2188  -50.9120 C.3       2 UNK         0.0286 
     63 CB         33.6252  -47.5708  -49.4667 C.3       2 UNK        -0.1963 
     64 N          34.4557  -46.8618  -51.6570 N.am      2 UNK        -0.4790 
     65 C          34.5681  -46.6037  -52.9688 C.2       1 UNK         0.5024 
     66 O          33.6460  -46.7569  -53.7661 O.2       1 UNK        -0.4888 
     67 H67        39.1957  -47.7824  -51.8140 H         1 UNK         0.0892 
     68 H68        38.5720  -47.7004  -50.1653 H         1 UNK         0.0892 
     69 H69        39.5444  -46.3746  -50.8087 H         1 UNK         0.0892 
     70 H70        37.6314  -47.3592  -53.3260 H         1 UNK         0.3107 
     71 H71        36.0274  -46.5589  -54.4974 H         1 UNK         0.0773 
     72 H72        35.4392  -44.0843  -52.8433 H         1 UNK         0.0680 
     73 H73        37.0287  -44.2319  -53.5196 H         1 UNK         0.0680 
     74 H74        34.4999  -42.2283  -53.9223 H         1 UNK         0.0650 
     75 H75        34.3248  -41.9112  -55.6238 H         1 UNK         0.0650 
     76 H76        32.8552  -43.6984  -52.7535 H         1 UNK         0.1397 
     77 H77        29.1969  -44.5846  -54.8247 H         1 UNK         0.1363 
     78 H78        32.5013  -42.9047  -56.9498 H         1 UNK         0.1355 
     79 H79        30.6000  -43.7871  -58.1653 H         1 UNK         0.0707 
     80 H80        29.4086  -44.7641  -57.3376 H         1 UNK         0.0707 
     81 H81        28.5089  -43.5275  -59.5518 H         1 UNK         0.1034 
     82 H82        27.9573  -41.8772  -59.5677 H         1 UNK         0.1034 
     83 H83        25.9348  -42.5083  -58.2512 H         1 UNK         0.0482 
     84 H84        25.3458  -45.3686  -60.1062 H         1 UNK         0.3460 
     85 H85        24.7996  -44.5311  -61.5375 H         1 UNK         0.3460 
     86 H86        27.2083  -45.0996  -58.0166 H         1 UNK         0.2989 
     87 H87        25.8193  -46.2091  -55.7674 H         1 UNK         0.0559 
     88 H88        24.1278  -48.0228  -56.0895 H         1 UNK         0.0848 
     89 H89        23.5050  -47.1922  -57.5161 H         1 UNK         0.0848 
     90 H90        23.3721  -46.4478  -55.9293 H         1 UNK         0.0848 
     91 H91        27.1532  -47.5306  -56.9391 H         1 UNK         0.3144 
     92 H92        26.9905  -49.0831  -60.1386 H         1 UNK         0.0727 
     93 H93        29.3541  -48.3257  -60.1676 H         1 UNK         0.0790 
     94 H94        29.0211  -47.1430  -58.9060 H         1 UNK         0.0790 
     95 H95        28.2673  -46.9843  -60.4865 H         1 UNK         0.0790 
     96 H96        28.2734  -49.1256  -57.4234 H         1 UNK         0.3215 
     97 H97        27.8300  -52.6850  -57.2827 H         1 UNK         0.0863 
     98 H98        30.2502  -52.6063  -56.7415 H         1 UNK         0.0808 
     99 H99        30.3839  -51.0075  -57.4684 H         1 UNK         0.0808 
    100 H100       29.9863  -52.3971  -58.4652 H         1 UNK         0.0808 
    101 H101       28.9616  -50.9124  -55.3745 H         1 UNK         0.3118 
    102 H102       25.9383  -50.6538  -53.4311 H         1 UNK         0.0546 
    103 H103       27.0513  -52.8242  -52.9932 H         1 UNK         0.0828 
    104 H104       27.5630  -51.6158  -51.8270 H         1 UNK         0.0828 
    105 H105       28.6358  -52.0804  -53.1448 H         1 UNK         0.0828 
    106 H106       28.7194  -49.6084  -53.5326 H         1 UNK         0.3005 
    107 H107       27.6376  -46.3588  -54.2490 H         1 UNK         0.1257 
    108 H108       28.8588  -47.0303  -51.5260 H         1 UNK         0.0775 
    109 H109       27.1951  -46.5562  -51.6655 H         1 UNK         0.0775 
    110 H110       30.7879  -44.1180  -51.4800 H         1 UNK         0.0840 
    111 H111       30.7680  -45.7272  -52.1532 H         1 UNK         0.0840 
    112 H112       30.1775  -47.4949  -53.4583 H         1 UNK         0.2987 
    113 H113       30.9336  -48.9622  -56.5626 H         1 UNK         0.0785 
    114 H114       32.0604  -46.2438  -55.7474 H         1 UNK         0.0798 
    115 H115       31.3421  -46.6280  -57.3048 H         1 UNK         0.0798 
    116 H116       32.8365  -47.4091  -56.8126 H         1 UNK         0.0798 
    117 H117       32.5912  -48.2219  -54.3387 H         1 UNK         0.3079 
    118 H118       31.7017  -50.9167  -52.2157 H         1 UNK         0.0794 
    119 H119       34.1261  -50.9319  -54.0969 H         1 UNK         0.0786 
    120 H120       32.9544  -52.2330  -53.9355 H         1 UNK         0.0786 
    121 H121       33.9861  -51.8184  -52.5774 H         1 UNK         0.0786 
    122 H122       34.0263  -49.2693  -52.2354 H         1 UNK         0.3032 
    123 H123       32.6190  -46.3226  -50.8816 H         1 UNK         0.1094 
    124 H124       34.2929  -48.4323  -49.4261 H         1 UNK         0.0794 
    125 H125       34.1246  -46.7361  -48.9742 H         1 UNK         0.0794 
    126 H126       32.7422  -47.8128  -48.8730 H         1 UNK         0.0794 
    127 H127       35.2758  -46.6431  -51.0980 H         1 UNK         0.3016 
@<TRIPOS>BOND
     1    1    2 1    
     2    1   67 1    
     3    1   68 1    
     4    1   69 1    
     5    2    3 2    
     6    2    4 am   BACKBONE|DICT|INTERRES
     7    4    5 1    
     8    4   70 1    
     9    5    6 1    
    10    5   65 1    
    11    5   71 1    
    12    6    7 1    
    13    6   72 1    
    14    6   73 1    
    15    7    8 1    
    16    8    9 1    
    17    8   74 1    
    18    8   75 1    
    19    9   10 ar   
    20    9   14 ar   
    21   10   11 ar   
    22   10   76 1    
    23   11   12 ar   
    24   11   48 1    
    25   12   13 ar   
    26   12   77 1    
    27   13   14 ar   
    28   13   15 1    
    29   14   78 1    
    30   15   16 1    
    31   15   79 1    
    32   15   80 1    
    33   16   17 1    
    34   17   18 1    
    35   17   81 1    
    36   17   82 1    
    37   18   19 1    
    38   18   22 1    
    39   18   83 1    
    40   19   20 am   BACKBONE|DICT|INTERRES
    41   19   21 2    
    42   20   84 1    
    43   20   85 1    
    44   22   23 am   BACKBONE|DICT|INTERRES
    45   22   86 1    
    46   23   24 2    
    47   23   25 1    
    48   25   26 1    
    49   25   27 1    
    50   25   87 1    
    51   26   88 1    
    52   26   89 1    
    53   26   90 1    
    54   27   28 am   BACKBONE|DICT|INTERRES
    55   27   91 1    
    56   28   29 2    
    57   28   30 1    
    58   30   31 1    
    59   30   32 1    
    60   30   92 1    
    61   31   93 1    
    62   31   94 1    
    63   31   95 1    
    64   32   33 am   BACKBONE|DICT|INTERRES
    65   32   96 1    
    66   33   34 2    
    67   33   35 1    
    68   35   36 1    
    69   35   37 1    
    70   35   97 1    
    71   36   98 1    
    72   36   99 1    
    73   36  100 1    
    74   37   38 am   BACKBONE|DICT|INTERRES
    75   37  101 1    
    76   38   39 2    
    77   38   40 1    
    78   40   41 1    
    79   40   42 1    
    80   40  102 1    
    81   41  103 1    
    82   41  104 1    
    83   41  105 1    
    84   42   43 am   BACKBONE|DICT|INTERRES
    85   42  106 1    
    86   43   44 2    
    87   43   45 1    
    88   45   46 1    
    89   45   49 1    
    90   45  107 1    
    91   46   47 1    
    92   46  108 1    
    93   46  109 1    
    94   47   48 1    
    95   48  110 1    
    96   48  111 1    
    97   49   50 am   BACKBONE|DICT|INTERRES
    98   49  112 1    
    99   50   51 2    
   100   50   52 1    
   101   52   53 1    
   102   52   54 1    
   103   52  113 1    
   104   53  114 1    
   105   53  115 1    
   106   53  116 1    
   107   54   55 am   BACKBONE|DICT|INTERRES
   108   54  117 1    
   109   55   56 2    
   110   55   57 1    
   111   57   58 1    
   112   57   59 1    
   113   57  118 1    
   114   58  119 1    
   115   58  120 1    
   116   58  121 1    
   117   59   60 am   BACKBONE|DICT|INTERRES
   118   59  122 1    
   119   60   61 2    
   120   60   62 1    
   121   62   63 1    
   122   62   64 1    
   123   62  123 1    
   124   63  124 1    
   125   63  125 1    
   126   63  126 1    
   127   64   65 am   BACKBONE|DICT|INTERRES
   128   64  127 1    
   129   65   66 2    
@<TRIPOS>SUBSTRUCTURE
     1 UNK         1 GROUP             0       ****    0 ROOT    
