@<TRIPOS>MOLECULE
3R134
127   129    1
SMALL
USER_CHARGES


@<TRIPOS>ATOM
      1 CA         35.1080  -45.4657  -52.4832 C.3       0 UNK        -0.1968 
      2 C          35.0912  -45.8888  -53.9443 C.2       0 UNK         0.4852 
      3 O          36.1441  -45.9494  -54.5815 O.2       0 UNK        -0.5359 
      4 N          33.9057  -46.2030  -54.4767 N.am      1 UNK        -0.4300 
      5 CA         33.6749  -46.6645  -55.8461 C.3       1 UNK         0.0863 
      6 C6         32.2821  -46.2109  -56.3570 C.3       11 UNK        -0.0953 
      7 S7         32.2903  -44.4684  -56.8967 S.3       11 UNK        -0.2369 
      8 C8         31.9203  -43.5500  -55.3605 C.3       11 UNK         0.0226 
      9 C9         30.5266  -43.7641  -54.7702 C.ar      11 UNK        -0.0699 
     10 C10        30.3354  -43.5373  -53.4035 C.ar      11 UNK        -0.0804 
     11 C11        29.0743  -43.6912  -52.8206 C.ar      11 UNK        -0.0871 
     12 C12        27.9908  -44.0736  -53.6167 C.ar      11 UNK        -0.1008 
     13 C13        28.1640  -44.3027  -54.9835 C.ar      11 UNK        -0.0735 
     14 C14        29.4300  -44.1427  -55.5542 C.ar      11 UNK        -0.0945 
     15 C15        26.9923  -44.7616  -55.8375 C.3       11 UNK         0.0169 
     16 S16        25.8063  -43.4293  -56.2035 S.3       11 UNK        -0.2669 
     17 C17        26.7621  -42.2981  -57.2755 C.3       11 UNK        -0.0850 
     18 CA         26.4566  -42.4962  -58.7914 C.3       10 UNK         0.0855 
     19 C          26.8823  -41.2748  -59.6661 C.2       10 UNK         0.5543 
     20 N          27.2533  -41.4652  -60.9266 N.am      10 UNK        -0.7343 
     21 O          26.8413  -40.1330  -59.2139 O.2       10 UNK        -0.5027 
     22 N          26.9142  -43.8059  -59.2948 N.am      10 UNK        -0.4495 
     23 C          28.1859  -44.2171  -59.3961 C.2       10 UNK         0.4903 
     24 O          29.1555  -43.5146  -59.1099 O.2       10 UNK        -0.4860 
     25 CA         28.4026  -45.6678  -59.8722 C.3       9 UNK         0.0227 
     26 CB         29.8848  -46.0849  -59.8409 C.3       9 UNK        -0.1964 
     27 N          27.6362  -46.6158  -59.0618 N.am      9 UNK        -0.4231 
     28 C          26.3421  -46.9192  -59.2087 C.2       9 UNK         0.5014 
     29 O          25.6391  -46.4298  -60.0951 O.2       9 UNK        -0.5270 
     30 CA         25.7233  -47.8986  -58.1852 C.3       8 UNK         0.0284 
     31 CB         24.4017  -48.5105  -58.6874 C.3       8 UNK        -0.1977 
     32 N          26.6164  -48.9863  -57.7616 N.am      8 UNK        -0.4342 
     33 C          27.6589  -48.8622  -56.9316 C.2       8 UNK         0.5039 
     34 O          28.0605  -47.7802  -56.5010 O.2       8 UNK        -0.5547 
     35 CA         28.3987  -50.1453  -56.5325 C.3       7 UNK         0.0281 
     36 CB         29.8455  -50.1199  -57.0496 C.3       7 UNK        -0.1963 
     37 N          28.4036  -50.2582  -55.0757 N.am      7 UNK        -0.4444 
     38 C          27.3518  -50.6590  -54.3495 C.2       7 UNK         0.5104 
     39 O          26.3125  -51.1044  -54.8385 O.2       7 UNK        -0.5100 
     40 CA         27.4698  -50.5388  -52.8214 C.3       6 UNK         0.0396 
     41 CB         27.9292  -51.8729  -52.2118 C.3       6 UNK        -0.1801 
     42 N          28.3736  -49.4613  -52.4014 N.am      6 UNK        -0.4747 
     43 C          28.0445  -48.1575  -52.4157 C.2       6 UNK         0.5012 
     44 O          26.9473  -47.7538  -52.8039 O.2       6 UNK        -0.5003 
     45 CA         29.0723  -47.1296  -51.8913 C.3       5 UNK         0.0782 
     46 C46        28.4246  -46.1919  -50.8368 C.3       11 UNK        -0.0868 
     47 S47        29.5316  -44.8312  -50.3333 S.3       11 UNK        -0.2515 
     48 C48        28.8877  -43.4490  -51.3298 C.3       11 UNK         0.0199 
     49 N          30.2628  -47.7935  -51.3529 N.am      5 UNK        -0.4607 
     50 C          31.5039  -47.6709  -51.8345 C.2       4 UNK         0.5031 
     51 O          31.8089  -46.9536  -52.7871 O.2       4 UNK        -0.5119 
     52 CA         32.6041  -48.5042  -51.1474 C.3       4 UNK         0.0263 
     53 CB         32.2485  -48.9472  -49.7098 C.3       4 UNK        -0.1967 
     54 N          32.9959  -49.6636  -51.9576 N.am      4 UNK        -0.4237 
     55 C          32.1929  -50.6222  -52.4436 C.2       3 UNK         0.4908 
     56 O          30.9792  -50.6611  -52.2376 O.2       3 UNK        -0.5102 
     57 CA         32.8541  -51.7079  -53.3159 C.3       3 UNK         0.0241 
     58 CB         31.8224  -52.6550  -53.9588 C.3       3 UNK        -0.1971 
     59 N          33.6765  -51.1203  -54.3747 N.am      3 UNK        -0.4139 
     60 C          34.9317  -50.6788  -54.2368 C.2       2 UNK         0.5016 
     61 O          35.5565  -50.7261  -53.1766 O.2       2 UNK        -0.5319 
     62 CA         35.5739  -50.0116  -55.4638 C.3       2 UNK         0.0286 
     63 CB         35.4014  -50.8355  -56.7585 C.3       2 UNK        -0.1963 
     64 N          35.1121  -48.6283  -55.6291 N.am      2 UNK        -0.4790 
     65 C          33.8684  -48.1928  -55.8831 C.2       1 UNK         0.5024 
     66 O          32.9122  -48.9384  -56.0988 O.2       1 UNK        -0.4888 
     67 H67        35.6035  -44.5011  -52.3779 H         1 UNK         0.0892 
     68 H68        34.1010  -45.3735  -52.0759 H         1 UNK         0.0892 
     69 H69        35.6524  -46.1970  -51.8866 H         1 UNK         0.0892 
     70 H70        33.0863  -46.2564  -53.8714 H         1 UNK         0.3107 
     71 H71        34.4329  -46.2414  -56.5092 H         1 UNK         0.0773 
     72 H72        31.5058  -46.3754  -55.6070 H         1 UNK         0.0680 
     73 H73        31.9831  -46.7934  -57.2300 H         1 UNK         0.0680 
     74 H74        32.0323  -42.4864  -55.5733 H         1 UNK         0.0650 
     75 H75        32.6813  -43.7905  -54.6182 H         1 UNK         0.0650 
     76 H76        31.1727  -43.2426  -52.7854 H         1 UNK         0.1397 
     77 H77        27.0120  -44.2033  -53.1754 H         1 UNK         0.1363 
     78 H78        29.5564  -44.3177  -56.6127 H         1 UNK         0.1355 
     79 H79        26.4701  -45.5683  -55.3205 H         1 UNK         0.0707 
     80 H80        27.3491  -45.1888  -56.7714 H         1 UNK         0.0707 
     81 H81        26.4919  -41.2893  -56.9590 H         1 UNK         0.1034 
     82 H82        27.8299  -42.3858  -57.0752 H         1 UNK         0.1034 
     83 H83        25.3713  -42.5185  -58.8955 H         1 UNK         0.0482 
     84 H84        27.2808  -42.3945  -61.3141 H         1 UNK         0.3460 
     85 H85        27.5155  -40.6724  -61.4909 H         1 UNK         0.3460 
     86 H86        26.1877  -44.4550  -59.5749 H         1 UNK         0.2989 
     87 H87        28.0610  -45.7253  -60.9076 H         1 UNK         0.0559 
     88 H88        30.2920  -46.0374  -58.8305 H         1 UNK         0.0848 
     89 H89        30.4910  -45.4296  -60.4677 H         1 UNK         0.0848 
     90 H90        30.0207  -47.1015  -60.2100 H         1 UNK         0.0848 
     91 H91        28.0950  -46.9923  -58.2350 H         1 UNK         0.3144 
     92 H92        25.4893  -47.3016  -57.3011 H         1 UNK         0.0727 
     93 H93        23.6709  -47.7345  -58.9199 H         1 UNK         0.0790 
     94 H94        23.9501  -49.1557  -57.9335 H         1 UNK         0.0790 
     95 H95        24.5500  -49.1010  -59.5923 H         1 UNK         0.0790 
     96 H96        26.3783  -49.9091  -58.0972 H         1 UNK         0.3215 
     97 H97        27.8929  -51.0144  -56.9590 H         1 UNK         0.0863 
     98 H98        30.3895  -49.2539  -56.6711 H         1 UNK         0.0808 
     99 H99        29.8699  -50.0662  -58.1387 H         1 UNK         0.0808 
    100 H100       30.3930  -51.0153  -56.7560 H         1 UNK         0.0808 
    101 H101       29.1927  -49.8602  -54.5879 H         1 UNK         0.3118 
    102 H102       26.4737  -50.3222  -52.4293 H         1 UNK         0.0546 
    103 H103       28.8888  -52.1952  -52.6161 H         1 UNK         0.0828 
    104 H104       27.2088  -52.6638  -52.4241 H         1 UNK         0.0828 
    105 H105       28.0264  -51.8048  -51.1283 H         1 UNK         0.0828 
    106 H106       29.3180  -49.7414  -52.1441 H         1 UNK         0.3005 
    107 H107       29.3461  -46.5288  -52.7618 H         1 UNK         0.1257 
    108 H108       28.1540  -46.7563  -49.9427 H         1 UNK         0.0775 
    109 H109       27.4933  -45.7611  -51.2085 H         1 UNK         0.0775 
    110 H110       27.8357  -43.2856  -51.0902 H         1 UNK         0.0840 
    111 H111       29.4087  -42.5343  -51.0432 H         1 UNK         0.0840 
    112 H112       30.1104  -48.4155  -50.5727 H         1 UNK         0.2987 
    113 H113       33.4804  -47.8576  -51.0841 H         1 UNK         0.0785 
    114 H114       31.9557  -48.0942  -49.0956 H         1 UNK         0.0798 
    115 H115       33.1080  -49.4083  -49.2232 H         1 UNK         0.0798 
    116 H116       31.4343  -49.6722  -49.6848 H         1 UNK         0.0798 
    117 H117       33.9793  -49.7295  -52.1968 H         1 UNK         0.3079 
    118 H118       33.4914  -52.3041  -52.6594 H         1 UNK         0.0794 
    119 H119       31.2364  -53.1697  -53.1963 H         1 UNK         0.0786 
    120 H120       32.3086  -53.4216  -54.5622 H         1 UNK         0.0786 
    121 H121       31.1232  -52.1161  -54.5993 H         1 UNK         0.0786 
    122 H122       33.2037  -50.8874  -55.2402 H         1 UNK         0.3032 
    123 H123       36.6445  -49.9548  -55.2581 H         1 UNK         0.1094 
    124 H124       35.7725  -51.8523  -56.6228 H         1 UNK         0.0794 
    125 H125       34.3624  -50.9109  -57.0788 H         1 UNK         0.0794 
    126 H126       35.9667  -50.3946  -57.5796 H         1 UNK         0.0794 
    127 H127       35.7994  -47.9131  -55.4125 H         1 UNK         0.3016 
@<TRIPOS>BOND
     1    1    2 1    
     2    1   67 1    
     3    1   68 1    
     4    1   69 1    
     5    2    3 2    
     6    2    4 am   BACKBONE|DICT|INTERRES
     7    4    5 1    
     8    4   70 1    
     9    5    6 1    
    10    5   65 1    
    11    5   71 1    
    12    6    7 1    
    13    6   72 1    
    14    6   73 1    
    15    7    8 1    
    16    8    9 1    
    17    8   74 1    
    18    8   75 1    
    19    9   10 ar   
    20    9   14 ar   
    21   10   11 ar   
    22   10   76 1    
    23   11   12 ar   
    24   11   48 1    
    25   12   13 ar   
    26   12   77 1    
    27   13   14 ar   
    28   13   15 1    
    29   14   78 1    
    30   15   16 1    
    31   15   79 1    
    32   15   80 1    
    33   16   17 1    
    34   17   18 1    
    35   17   81 1    
    36   17   82 1    
    37   18   19 1    
    38   18   22 1    
    39   18   83 1    
    40   19   20 am   BACKBONE|DICT|INTERRES
    41   19   21 2    
    42   20   84 1    
    43   20   85 1    
    44   22   23 am   BACKBONE|DICT|INTERRES
    45   22   86 1    
    46   23   24 2    
    47   23   25 1    
    48   25   26 1    
    49   25   27 1    
    50   25   87 1    
    51   26   88 1    
    52   26   89 1    
    53   26   90 1    
    54   27   28 am   BACKBONE|DICT|INTERRES
    55   27   91 1    
    56   28   29 2    
    57   28   30 1    
    58   30   31 1    
    59   30   32 1    
    60   30   92 1    
    61   31   93 1    
    62   31   94 1    
    63   31   95 1    
    64   32   33 am   BACKBONE|DICT|INTERRES
    65   32   96 1    
    66   33   34 2    
    67   33   35 1    
    68   35   36 1    
    69   35   37 1    
    70   35   97 1    
    71   36   98 1    
    72   36   99 1    
    73   36  100 1    
    74   37   38 am   BACKBONE|DICT|INTERRES
    75   37  101 1    
    76   38   39 2    
    77   38   40 1    
    78   40   41 1    
    79   40   42 1    
    80   40  102 1    
    81   41  103 1    
    82   41  104 1    
    83   41  105 1    
    84   42   43 am   BACKBONE|DICT|INTERRES
    85   42  106 1    
    86   43   44 2    
    87   43   45 1    
    88   45   46 1    
    89   45   49 1    
    90   45  107 1    
    91   46   47 1    
    92   46  108 1    
    93   46  109 1    
    94   47   48 1    
    95   48  110 1    
    96   48  111 1    
    97   49   50 am   BACKBONE|DICT|INTERRES
    98   49  112 1    
    99   50   51 2    
   100   50   52 1    
   101   52   53 1    
   102   52   54 1    
   103   52  113 1    
   104   53  114 1    
   105   53  115 1    
   106   53  116 1    
   107   54   55 am   BACKBONE|DICT|INTERRES
   108   54  117 1    
   109   55   56 2    
   110   55   57 1    
   111   57   58 1    
   112   57   59 1    
   113   57  118 1    
   114   58  119 1    
   115   58  120 1    
   116   58  121 1    
   117   59   60 am   BACKBONE|DICT|INTERRES
   118   59  122 1    
   119   60   61 2    
   120   60   62 1    
   121   62   63 1    
   122   62   64 1    
   123   62  123 1    
   124   63  124 1    
   125   63  125 1    
   126   63  126 1    
   127   64   65 am   BACKBONE|DICT|INTERRES
   128   64  127 1    
   129   65   66 2    
@<TRIPOS>SUBSTRUCTURE
     1 UNK         1 GROUP             0       ****    0 ROOT    
