@<TRIPOS>MOLECULE
3R134
127   129    1
SMALL
USER_CHARGES


@<TRIPOS>ATOM
      1 CA         31.7885  -49.3052  -57.4174 C.3       0 UNK        -0.1968 
      2 C          32.8195  -48.3536  -56.8326 C.2       0 UNK         0.4852 
      3 O          33.9195  -48.2416  -57.3747 O.2       0 UNK        -0.5359 
      4 N          32.4811  -47.6971  -55.7130 N.am      1 UNK        -0.4300 
      5 CA         33.3086  -46.7810  -54.9171 C.3       1 UNK         0.0863 
      6 C6         33.8702  -45.5781  -55.7246 C.3       11 UNK        -0.0953 
      7 S7         34.6509  -44.3075  -54.6726 S.3       11 UNK        -0.2369 
      8 C8         33.7003  -42.8115  -55.0939 C.3       11 UNK         0.0226 
      9 C9         32.2901  -42.7962  -54.5139 C.ar      11 UNK        -0.0699 
     10 C10        32.0682  -43.0686  -53.1597 C.ar      11 UNK        -0.0804 
     11 C11        30.7826  -42.9865  -52.6167 C.ar      11 UNK        -0.0871 
     12 C12        29.7094  -42.6261  -53.4384 C.ar      11 UNK        -0.1008 
     13 C13        29.9204  -42.3295  -54.7888 C.ar      11 UNK        -0.0735 
     14 C14        31.2100  -42.4271  -55.3212 C.ar      11 UNK        -0.0945 
     15 C15        28.7778  -41.8243  -55.6587 C.3       11 UNK         0.0169 
     16 S16        28.3028  -43.0260  -56.9376 S.3       11 UNK        -0.2669 
     17 C17        27.2868  -41.9788  -58.0367 C.3       11 UNK        -0.0850 
     18 CA         25.9027  -42.5928  -58.3745 C.3       10 UNK         0.0855 
     19 C          25.0565  -41.5716  -59.1930 C.2       10 UNK         0.5543 
     20 N          24.8169  -41.7856  -60.4811 N.am      10 UNK        -0.7343 
     21 O          24.6139  -40.5653  -58.6447 O.2       10 UNK        -0.5027 
     22 N          26.0388  -43.9296  -58.9804 N.am      10 UNK        -0.4495 
     23 C          25.0339  -44.7847  -59.2150 C.2       10 UNK         0.4903 
     24 O          23.8538  -44.5557  -58.9489 O.2       10 UNK        -0.4860 
     25 CA         25.4120  -46.1315  -59.8563 C.3       9 UNK         0.0227 
     26 CB         25.4678  -46.0024  -61.3875 C.3       9 UNK        -0.1964 
     27 N          26.6835  -46.6691  -59.3604 N.am      9 UNK        -0.4231 
     28 C          26.8642  -47.1477  -58.1221 C.2       9 UNK         0.5014 
     29 O          25.9747  -47.1942  -57.2686 O.2       9 UNK        -0.5270 
     30 CA         28.2806  -47.6389  -57.7837 C.3       8 UNK         0.0284 
     31 CB         29.1685  -46.4691  -57.3315 C.3       8 UNK        -0.1977 
     32 N          28.2278  -48.6361  -56.7162 N.am      8 UNK        -0.4342 
     33 C          28.0338  -49.9474  -56.9141 C.2       8 UNK         0.5039 
     34 O          27.9816  -50.4664  -58.0302 O.2       8 UNK        -0.5547 
     35 CA         27.8818  -50.8438  -55.6715 C.3       7 UNK         0.0281 
     36 CB         29.1523  -51.6789  -55.4336 C.3       7 UNK        -0.1963 
     37 N          27.5644  -50.0833  -54.4607 N.am      7 UNK        -0.4444 
     38 C          26.3309  -49.6745  -54.1295 C.2       7 UNK         0.5104 
     39 O          25.3219  -49.9591  -54.7750 O.2       7 UNK        -0.5100 
     40 CA         26.1856  -48.8119  -52.8609 C.3       6 UNK         0.0396 
     41 CB         25.6237  -49.6549  -51.7045 C.3       6 UNK        -0.1801 
     42 N          27.4326  -48.1773  -52.4235 N.am      6 UNK        -0.4747 
     43 C          28.0625  -47.1823  -53.0673 C.2       6 UNK         0.5012 
     44 O          27.6611  -46.6877  -54.1183 O.2       6 UNK        -0.5003 
     45 CA         29.3983  -46.7113  -52.4575 C.3       5 UNK         0.0782 
     46 C46        29.1431  -45.6512  -51.3609 C.3       11 UNK        -0.0868 
     47 S47        30.6959  -44.9814  -50.6792 S.3       11 UNK        -0.2515 
     48 C48        30.5728  -43.2223  -51.1274 C.3       11 UNK         0.0199 
     49 N          30.1842  -47.8489  -51.9580 N.am      5 UNK        -0.4607 
     50 C          30.6775  -48.8191  -52.7334 C.2       4 UNK         0.5031 
     51 O          30.5732  -48.8279  -53.9641 O.2       4 UNK        -0.5119 
     52 CA         31.3335  -50.0052  -52.0224 C.3       4 UNK         0.0263 
     53 CB         30.2487  -50.9921  -51.5428 C.3       4 UNK        -0.1967 
     54 N          32.2391  -50.6406  -52.9733 N.am      4 UNK        -0.4237 
     55 C          33.1020  -51.6341  -52.7317 C.2       3 UNK         0.4908 
     56 O          33.2333  -52.1940  -51.6431 O.2       3 UNK        -0.5102 
     57 CA         33.9953  -52.0445  -53.9132 C.3       3 UNK         0.0241 
     58 CB         33.1672  -52.6425  -55.0652 C.3       3 UNK        -0.1971 
     59 N          34.7709  -50.9021  -54.3988 N.am      3 UNK        -0.4139 
     60 C          35.8199  -50.3665  -53.7569 C.2       2 UNK         0.5016 
     61 O          36.3353  -50.8523  -52.7495 O.2       2 UNK        -0.5319 
     62 CA         36.3741  -49.0501  -54.3271 C.3       2 UNK         0.0286 
     63 CB         37.4225  -49.3257  -55.4167 C.3       2 UNK        -0.1963 
     64 N          35.3211  -48.1883  -54.8706 N.am      2 UNK        -0.4790 
     65 C          34.3900  -47.5592  -54.1401 C.2       1 UNK         0.5024 
     66 O          34.3383  -47.6075  -52.9109 O.2       1 UNK        -0.4888 
     67 H67        30.9580  -49.4640  -56.7328 H         1 UNK         0.0892 
     68 H68        31.3910  -48.9034  -58.3489 H         1 UNK         0.0892 
     69 H69        32.2415  -50.2733  -57.6289 H         1 UNK         0.0892 
     70 H70        31.5915  -47.9264  -55.2755 H         1 UNK         0.3107 
     71 H71        32.6284  -46.3697  -54.1685 H         1 UNK         0.0773 
     72 H72        34.6088  -45.9016  -56.4590 H         1 UNK         0.0680 
     73 H73        33.0624  -45.1190  -56.2965 H         1 UNK         0.0680 
     74 H74        33.6800  -42.7014  -56.1793 H         1 UNK         0.0650 
     75 H75        34.2371  -41.9438  -54.7087 H         1 UNK         0.0650 
     76 H76        32.9013  -43.3281  -52.5206 H         1 UNK         0.1397 
     77 H77        28.7163  -42.5384  -53.0192 H         1 UNK         0.1363 
     78 H78        31.3729  -42.1840  -56.3625 H         1 UNK         0.1355 
     79 H79        29.0907  -40.8931  -56.1337 H         1 UNK         0.0707 
     80 H80        27.9024  -41.5840  -55.0533 H         1 UNK         0.0707 
     81 H81        27.1548  -41.0000  -57.5709 H         1 UNK         0.1034 
     82 H82        27.8545  -41.7972  -58.9514 H         1 UNK         0.1034 
     83 H83        25.3691  -42.7349  -57.4327 H         1 UNK         0.0482 
     84 H84        25.1752  -42.6092  -60.9364 H         1 UNK         0.3460 
     85 H85        24.2671  -41.1189  -60.9997 H         1 UNK         0.3460 
     86 H86        26.9785  -44.2122  -59.2129 H         1 UNK         0.2989 
     87 H87        24.6248  -46.8471  -59.6088 H         1 UNK         0.0559 
     88 H88        24.5243  -45.6208  -61.7808 H         1 UNK         0.0848 
     89 H89        25.6446  -46.9684  -61.8611 H         1 UNK         0.0848 
     90 H90        26.2550  -45.3204  -61.7113 H         1 UNK         0.0848 
     91 H91        27.4626  -46.6698  -60.0036 H         1 UNK         0.3144 
     92 H92        28.7242  -48.0848  -58.6767 H         1 UNK         0.0727 
     93 H93        28.7600  -45.9695  -56.4525 H         1 UNK         0.0790 
     94 H94        29.2614  -45.7198  -58.1182 H         1 UNK         0.0790 
     95 H95        30.1753  -46.8003  -57.0861 H         1 UNK         0.0790 
     96 H96        28.1585  -48.2714  -55.7750 H         1 UNK         0.3215 
     97 H97        27.0636  -51.5378  -55.8774 H         1 UNK         0.0863 
     98 H98        30.0113  -51.0579  -55.1860 H         1 UNK         0.0808 
     99 H99        29.4138  -52.2538  -56.3231 H         1 UNK         0.0808 
    100 H100       29.0101  -52.3922  -54.6218 H         1 UNK         0.0808 
    101 H101       28.3435  -49.7840  -53.8921 H         1 UNK         0.3118 
    102 H102       25.4671  -48.0211  -53.0873 H         1 UNK         0.0546 
    103 H103       26.3049  -50.4584  -51.4212 H         1 UNK         0.0828 
    104 H104       24.6750  -50.1163  -51.9827 H         1 UNK         0.0828 
    105 H105       25.4360  -49.0443  -50.8212 H         1 UNK         0.0828 
    106 H106       27.8407  -48.5250  -51.5677 H         1 UNK         0.3005 
    107 H107       29.9667  -46.2378  -53.2624 H         1 UNK         0.1257 
    108 H108       28.5698  -46.0778  -50.5356 H         1 UNK         0.0775 
    109 H109       28.5379  -44.8330  -51.7557 H         1 UNK         0.0775 
    110 H110       29.6101  -42.8274  -50.7987 H         1 UNK         0.0840 
    111 H111       31.3290  -42.6677  -50.5697 H         1 UNK         0.0840 
    112 H112       30.3284  -47.8873  -50.9590 H         1 UNK         0.2987 
    113 H113       31.9143  -49.6379  -51.1739 H         1 UNK         0.0785 
    114 H114       29.5357  -50.5042  -50.8774 H         1 UNK         0.0798 
    115 H115       30.6785  -51.8240  -50.9854 H         1 UNK         0.0798 
    116 H116       29.6849  -51.4092  -52.3775 H         1 UNK         0.0798 
    117 H117       32.1936  -50.2322  -53.8967 H         1 UNK         0.3079 
    118 H118       34.6882  -52.8121  -53.5607 H         1 UNK         0.0794 
    119 H119       33.8127  -53.0183  -55.8594 H         1 UNK         0.0786 
    120 H120       32.4856  -51.9155  -55.5075 H         1 UNK         0.0786 
    121 H121       32.5650  -53.4824  -54.7159 H         1 UNK         0.0786 
    122 H122       34.4428  -50.4381  -55.2322 H         1 UNK         0.3032 
    123 H123       36.8609  -48.5164  -53.5074 H         1 UNK         0.1094 
    124 H124       36.9886  -49.8364  -56.2774 H         1 UNK         0.0794 
    125 H125       37.8780  -48.4005  -55.7705 H         1 UNK         0.0794 
    126 H126       38.2267  -49.9556  -55.0338 H         1 UNK         0.0794 
    127 H127       35.2324  -48.1322  -55.8817 H         1 UNK         0.3016 
@<TRIPOS>BOND
     1    1    2 1    
     2    1   67 1    
     3    1   68 1    
     4    1   69 1    
     5    2    3 2    
     6    2    4 am   BACKBONE|DICT|INTERRES
     7    4    5 1    
     8    4   70 1    
     9    5    6 1    
    10    5   65 1    
    11    5   71 1    
    12    6    7 1    
    13    6   72 1    
    14    6   73 1    
    15    7    8 1    
    16    8    9 1    
    17    8   74 1    
    18    8   75 1    
    19    9   10 ar   
    20    9   14 ar   
    21   10   11 ar   
    22   10   76 1    
    23   11   12 ar   
    24   11   48 1    
    25   12   13 ar   
    26   12   77 1    
    27   13   14 ar   
    28   13   15 1    
    29   14   78 1    
    30   15   16 1    
    31   15   79 1    
    32   15   80 1    
    33   16   17 1    
    34   17   18 1    
    35   17   81 1    
    36   17   82 1    
    37   18   19 1    
    38   18   22 1    
    39   18   83 1    
    40   19   20 am   BACKBONE|DICT|INTERRES
    41   19   21 2    
    42   20   84 1    
    43   20   85 1    
    44   22   23 am   BACKBONE|DICT|INTERRES
    45   22   86 1    
    46   23   24 2    
    47   23   25 1    
    48   25   26 1    
    49   25   27 1    
    50   25   87 1    
    51   26   88 1    
    52   26   89 1    
    53   26   90 1    
    54   27   28 am   BACKBONE|DICT|INTERRES
    55   27   91 1    
    56   28   29 2    
    57   28   30 1    
    58   30   31 1    
    59   30   32 1    
    60   30   92 1    
    61   31   93 1    
    62   31   94 1    
    63   31   95 1    
    64   32   33 am   BACKBONE|DICT|INTERRES
    65   32   96 1    
    66   33   34 2    
    67   33   35 1    
    68   35   36 1    
    69   35   37 1    
    70   35   97 1    
    71   36   98 1    
    72   36   99 1    
    73   36  100 1    
    74   37   38 am   BACKBONE|DICT|INTERRES
    75   37  101 1    
    76   38   39 2    
    77   38   40 1    
    78   40   41 1    
    79   40   42 1    
    80   40  102 1    
    81   41  103 1    
    82   41  104 1    
    83   41  105 1    
    84   42   43 am   BACKBONE|DICT|INTERRES
    85   42  106 1    
    86   43   44 2    
    87   43   45 1    
    88   45   46 1    
    89   45   49 1    
    90   45  107 1    
    91   46   47 1    
    92   46  108 1    
    93   46  109 1    
    94   47   48 1    
    95   48  110 1    
    96   48  111 1    
    97   49   50 am   BACKBONE|DICT|INTERRES
    98   49  112 1    
    99   50   51 2    
   100   50   52 1    
   101   52   53 1    
   102   52   54 1    
   103   52  113 1    
   104   53  114 1    
   105   53  115 1    
   106   53  116 1    
   107   54   55 am   BACKBONE|DICT|INTERRES
   108   54  117 1    
   109   55   56 2    
   110   55   57 1    
   111   57   58 1    
   112   57   59 1    
   113   57  118 1    
   114   58  119 1    
   115   58  120 1    
   116   58  121 1    
   117   59   60 am   BACKBONE|DICT|INTERRES
   118   59  122 1    
   119   60   61 2    
   120   60   62 1    
   121   62   63 1    
   122   62   64 1    
   123   62  123 1    
   124   63  124 1    
   125   63  125 1    
   126   63  126 1    
   127   64   65 am   BACKBONE|DICT|INTERRES
   128   64  127 1    
   129   65   66 2    
@<TRIPOS>SUBSTRUCTURE
     1 UNK         1 GROUP             0       ****    0 ROOT    
