@<TRIPOS>MOLECULE
3R134
127   129    1
SMALL
USER_CHARGES


@<TRIPOS>ATOM
      1 CA         34.2928  -42.6374  -50.3215 C.3       0 UNK        -0.1968 
      2 C          35.0258  -43.9548  -50.5283 C.2       0 UNK         0.4852 
      3 O          35.5878  -44.4985  -49.5768 O.2       0 UNK        -0.5359 
      4 N          35.0221  -44.4710  -51.7651 N.am      1 UNK        -0.4300 
      5 CA         35.6598  -45.7359  -52.1537 C.3       1 UNK         0.0863 
      6 C6         35.8728  -45.8098  -53.6899 C.3       11 UNK        -0.0953 
      7 S7         34.3298  -46.0017  -54.6481 S.3       11 UNK        -0.2369 
      8 C8         33.9912  -44.3129  -55.2346 C.3       11 UNK         0.0226 
      9 C9         32.4940  -44.1414  -55.4309 C.ar      11 UNK        -0.0699 
     10 C10        31.6904  -43.7759  -54.3482 C.ar      11 UNK        -0.0804 
     11 C11        30.3005  -43.7251  -54.4806 C.ar      11 UNK        -0.0871 
     12 C12        29.7176  -44.0235  -55.7149 C.ar      11 UNK        -0.1008 
     13 C13        30.5101  -44.3937  -56.8060 C.ar      11 UNK        -0.0735 
     14 C14        31.9007  -44.4257  -56.6645 C.ar      11 UNK        -0.0945 
     15 C15        29.8633  -44.8793  -58.0955 C.3       11 UNK         0.0169 
     16 S16        29.4964  -43.5562  -59.2941 S.3       11 UNK        -0.2669 
     17 C17        28.2441  -42.5111  -58.4618 C.3       11 UNK        -0.0850 
     18 CA         26.7794  -43.0286  -58.5221 C.3       10 UNK         0.0855 
     19 C          26.1948  -43.0572  -59.9661 C.2       10 UNK         0.5543 
     20 N          25.6288  -44.1606  -60.4423 N.am      10 UNK        -0.7343 
     21 O          26.2369  -42.0464  -60.6633 O.2       10 UNK        -0.5027 
     22 N          26.6153  -44.2803  -57.7696 N.am      10 UNK        -0.4495 
     23 C          25.5156  -44.6452  -57.1011 C.2       10 UNK         0.4903 
     24 O          24.5215  -43.9276  -56.9791 O.2       10 UNK        -0.4860 
     25 CA         25.5404  -46.0482  -56.4555 C.3       9 UNK         0.0227 
     26 CB         24.1289  -46.5658  -56.1090 C.3       9 UNK        -0.1964 
     27 N          26.2768  -47.0702  -57.2207 N.am      9 UNK        -0.4231 
     28 C          26.0753  -47.4116  -58.5034 C.2       9 UNK         0.5014 
     29 O          25.2680  -46.8442  -59.2407 O.2       9 UNK        -0.5270 
     30 CA         26.9196  -48.5516  -59.0909 C.3       8 UNK         0.0284 
     31 CB         28.0625  -47.9740  -59.9440 C.3       8 UNK        -0.1977 
     32 N          27.4916  -49.4508  -58.0823 N.am      8 UNK        -0.4342 
     33 C          27.0683  -50.7033  -57.8616 C.2       8 UNK         0.5039 
     34 O          26.0432  -51.1767  -58.3544 O.2       8 UNK        -0.5547 
     35 CA         27.9644  -51.6064  -56.9959 C.3       7 UNK         0.0281 
     36 CB         29.3024  -51.8884  -57.6999 C.3       7 UNK        -0.1963 
     37 N          28.2104  -51.0720  -55.6565 N.am      7 UNK        -0.4444 
     38 C          27.3261  -51.1300  -54.6504 C.2       7 UNK         0.5104 
     39 O          26.2009  -51.6202  -54.7508 O.2       7 UNK        -0.5100 
     40 CA         27.7725  -50.5487  -53.2956 C.3       6 UNK         0.0396 
     41 CB         28.5443  -51.5976  -52.4799 C.3       6 UNK        -0.1801 
     42 N          28.5900  -49.3431  -53.4343 N.am      6 UNK        -0.4747 
     43 C          28.1435  -48.1859  -53.9409 C.2       6 UNK         0.5012 
     44 O          26.9776  -47.9985  -54.2834 O.2       6 UNK        -0.5003 
     45 CA         29.1888  -47.0793  -54.1680 C.3       5 UNK         0.0782 
     46 C46        29.4605  -46.2530  -52.8823 C.3       11 UNK        -0.0868 
     47 S47        28.3470  -44.8067  -52.7916 S.3       11 UNK        -0.2515 
     48 C48        29.4315  -43.4142  -53.2678 C.3       11 UNK         0.0199 
     49 N          30.4103  -47.6182  -54.7723 N.am      5 UNK        -0.4607 
     50 C          30.4740  -48.1076  -56.0192 C.2       4 UNK         0.5031 
     51 O          29.5293  -48.0763  -56.8071 O.2       4 UNK        -0.5119 
     52 CA         31.7772  -48.7980  -56.4545 C.3       4 UNK         0.0263 
     53 CB         32.6152  -47.8978  -57.3711 C.3       4 UNK        -0.1967 
     54 N          32.5765  -49.2654  -55.3189 N.am      4 UNK        -0.4237 
     55 C          32.2527  -50.3504  -54.6009 C.2       3 UNK         0.4908 
     56 O          31.2782  -51.0637  -54.8455 O.2       3 UNK        -0.5102 
     57 CA         33.1356  -50.6633  -53.3830 C.3       3 UNK         0.0241 
     58 CB         34.5262  -51.1535  -53.8192 C.3       3 UNK        -0.1971 
     59 N          33.2791  -49.5364  -52.4558 N.am      3 UNK        -0.4139 
     60 C          32.2781  -48.9110  -51.8231 C.2       2 UNK         0.5016 
     61 O          31.0884  -49.1573  -52.0180 O.2       2 UNK        -0.5319 
     62 CA         32.6506  -47.8159  -50.8081 C.3       2 UNK         0.0286 
     63 CB         33.0912  -48.4291  -49.4650 C.3       2 UNK        -0.1963 
     64 N          33.6216  -46.8273  -51.2983 N.am      2 UNK        -0.4790 
     65 C          34.9189  -46.9826  -51.6114 C.2       1 UNK         0.5024 
     66 O          35.5219  -48.0535  -51.5241 O.2       1 UNK        -0.4888 
     67 H67        33.4943  -42.7632  -49.5908 H         1 UNK         0.0892 
     68 H68        34.9813  -41.8806  -49.9464 H         1 UNK         0.0892 
     69 H69        33.8512  -42.2644  -51.2455 H         1 UNK         0.0892 
     70 H70        34.5609  -43.9710  -52.5096 H         1 UNK         0.3107 
     71 H71        36.6501  -45.7489  -51.6931 H         1 UNK         0.0773 
     72 H72        36.4142  -44.9300  -54.0412 H         1 UNK         0.0680 
     73 H73        36.5151  -46.6591  -53.9299 H         1 UNK         0.0680 
     74 H74        34.5281  -44.1370  -56.1679 H         1 UNK         0.0650 
     75 H75        34.3593  -43.5774  -54.5187 H         1 UNK         0.0650 
     76 H76        32.1454  -43.5745  -53.3888 H         1 UNK         0.1397 
     77 H77        28.6405  -44.0215  -55.8032 H         1 UNK         0.1363 
     78 H78        32.5178  -44.7309  -57.4983 H         1 UNK         0.1355 
     79 H79        28.9659  -45.4504  -57.8663 H         1 UNK         0.0707 
     80 H80        30.5292  -45.5920  -58.5842 H         1 UNK         0.0707 
     81 H81        28.5383  -42.3353  -57.4286 H         1 UNK         0.1034 
     82 H82        28.2948  -41.5235  -58.9242 H         1 UNK         0.1034 
     83 H83        26.1837  -42.2711  -58.0091 H         1 UNK         0.0482 
     84 H84        25.2510  -44.1514  -61.3759 H         1 UNK         0.3460 
     85 H85        25.5541  -45.0030  -59.8812 H         1 UNK         0.3460 
     86 H86        27.3606  -44.9505  -57.8685 H         1 UNK         0.2989 
     87 H87        26.0804  -45.9173  -55.5178 H         1 UNK         0.0559 
     88 H88        23.5126  -46.6831  -57.0010 H         1 UNK         0.0848 
     89 H89        23.6094  -45.8790  -55.4398 H         1 UNK         0.0848 
     90 H90        24.1769  -47.5304  -55.6034 H         1 UNK         0.0848 
     91 H91        26.9565  -47.6018  -56.6926 H         1 UNK         0.3144 
     92 H92        26.2640  -49.1113  -59.7614 H         1 UNK         0.0727 
     93 H93        28.7814  -47.4201  -59.3410 H         1 UNK         0.0790 
     94 H94        27.6807  -47.2919  -60.7053 H         1 UNK         0.0790 
     95 H95        28.6044  -48.7648  -60.4628 H         1 UNK         0.0790 
     96 H96        28.3267  -49.1105  -57.6053 H         1 UNK         0.3215 
     97 H97        27.4520  -52.5649  -56.8843 H         1 UNK         0.0863 
     98 H98        29.9392  -52.5395  -57.1004 H         1 UNK         0.0808 
     99 H99        29.8566  -50.9741  -57.9060 H         1 UNK         0.0808 
    100 H100       29.1380  -52.3867  -58.6562 H         1 UNK         0.0808 
    101 H101       29.1341  -50.7059  -55.4610 H         1 UNK         0.3118 
    102 H102       26.8736  -50.2797  -52.7370 H         1 UNK         0.0546 
    103 H103       27.9455  -52.4977  -52.3346 H         1 UNK         0.0828 
    104 H104       28.8052  -51.2176  -51.4920 H         1 UNK         0.0828 
    105 H105       29.4685  -51.8961  -52.9759 H         1 UNK         0.0828 
    106 H106       29.5563  -49.3987  -53.1176 H         1 UNK         0.3005 
    107 H107       28.7575  -46.4178  -54.9207 H         1 UNK         0.1257 
    108 H108       30.4937  -45.9061  -52.8520 H         1 UNK         0.0775 
    109 H109       29.3382  -46.8530  -51.9782 H         1 UNK         0.0775 
    110 H110       28.8140  -42.5411  -53.4830 H         1 UNK         0.0840 
    111 H111       30.0484  -43.1463  -52.4086 H         1 UNK         0.0840 
    112 H112       31.2155  -47.7088  -54.1724 H         1 UNK         0.2987 
    113 H113       31.4950  -49.6701  -57.0451 H         1 UNK         0.0785 
    114 H114       32.9377  -46.9928  -56.8648 H         1 UNK         0.0798 
    115 H115       32.0409  -47.5934  -58.2469 H         1 UNK         0.0798 
    116 H116       33.5042  -48.4154  -57.7314 H         1 UNK         0.0798 
    117 H117       33.3816  -48.7145  -55.0553 H         1 UNK         0.3079 
    118 H118       32.6501  -51.4724  -52.8332 H         1 UNK         0.0794 
    119 H119       35.0979  -50.3686  -54.3161 H         1 UNK         0.0786 
    120 H120       34.4460  -51.9907  -54.5141 H         1 UNK         0.0786 
    121 H121       35.1086  -51.4989  -52.9647 H         1 UNK         0.0786 
    122 H122       34.2231  -49.2376  -52.2250 H         1 UNK         0.3032 
    123 H123       31.7337  -47.2552  -50.6172 H         1 UNK         0.1094 
    124 H124       33.2810  -47.6555  -48.7208 H         1 UNK         0.0794 
    125 H125       32.3144  -49.0812  -49.0633 H         1 UNK         0.0794 
    126 H126       33.9964  -49.0289  -49.5624 H         1 UNK         0.0794 
    127 H127       33.2431  -45.9023  -51.4435 H         1 UNK         0.3016 
@<TRIPOS>BOND
     1    1    2 1    
     2    1   67 1    
     3    1   68 1    
     4    1   69 1    
     5    2    3 2    
     6    2    4 am   BACKBONE|DICT|INTERRES
     7    4    5 1    
     8    4   70 1    
     9    5    6 1    
    10    5   65 1    
    11    5   71 1    
    12    6    7 1    
    13    6   72 1    
    14    6   73 1    
    15    7    8 1    
    16    8    9 1    
    17    8   74 1    
    18    8   75 1    
    19    9   10 ar   
    20    9   14 ar   
    21   10   11 ar   
    22   10   76 1    
    23   11   12 ar   
    24   11   48 1    
    25   12   13 ar   
    26   12   77 1    
    27   13   14 ar   
    28   13   15 1    
    29   14   78 1    
    30   15   16 1    
    31   15   79 1    
    32   15   80 1    
    33   16   17 1    
    34   17   18 1    
    35   17   81 1    
    36   17   82 1    
    37   18   19 1    
    38   18   22 1    
    39   18   83 1    
    40   19   20 am   BACKBONE|DICT|INTERRES
    41   19   21 2    
    42   20   84 1    
    43   20   85 1    
    44   22   23 am   BACKBONE|DICT|INTERRES
    45   22   86 1    
    46   23   24 2    
    47   23   25 1    
    48   25   26 1    
    49   25   27 1    
    50   25   87 1    
    51   26   88 1    
    52   26   89 1    
    53   26   90 1    
    54   27   28 am   BACKBONE|DICT|INTERRES
    55   27   91 1    
    56   28   29 2    
    57   28   30 1    
    58   30   31 1    
    59   30   32 1    
    60   30   92 1    
    61   31   93 1    
    62   31   94 1    
    63   31   95 1    
    64   32   33 am   BACKBONE|DICT|INTERRES
    65   32   96 1    
    66   33   34 2    
    67   33   35 1    
    68   35   36 1    
    69   35   37 1    
    70   35   97 1    
    71   36   98 1    
    72   36   99 1    
    73   36  100 1    
    74   37   38 am   BACKBONE|DICT|INTERRES
    75   37  101 1    
    76   38   39 2    
    77   38   40 1    
    78   40   41 1    
    79   40   42 1    
    80   40  102 1    
    81   41  103 1    
    82   41  104 1    
    83   41  105 1    
    84   42   43 am   BACKBONE|DICT|INTERRES
    85   42  106 1    
    86   43   44 2    
    87   43   45 1    
    88   45   46 1    
    89   45   49 1    
    90   45  107 1    
    91   46   47 1    
    92   46  108 1    
    93   46  109 1    
    94   47   48 1    
    95   48  110 1    
    96   48  111 1    
    97   49   50 am   BACKBONE|DICT|INTERRES
    98   49  112 1    
    99   50   51 2    
   100   50   52 1    
   101   52   53 1    
   102   52   54 1    
   103   52  113 1    
   104   53  114 1    
   105   53  115 1    
   106   53  116 1    
   107   54   55 am   BACKBONE|DICT|INTERRES
   108   54  117 1    
   109   55   56 2    
   110   55   57 1    
   111   57   58 1    
   112   57   59 1    
   113   57  118 1    
   114   58  119 1    
   115   58  120 1    
   116   58  121 1    
   117   59   60 am   BACKBONE|DICT|INTERRES
   118   59  122 1    
   119   60   61 2    
   120   60   62 1    
   121   62   63 1    
   122   62   64 1    
   123   62  123 1    
   124   63  124 1    
   125   63  125 1    
   126   63  126 1    
   127   64   65 am   BACKBONE|DICT|INTERRES
   128   64  127 1    
   129   65   66 2    
@<TRIPOS>SUBSTRUCTURE
     1 UNK         1 GROUP             0       ****    0 ROOT    
