@<TRIPOS>MOLECULE
3R134
127   129    1
SMALL
USER_CHARGES


@<TRIPOS>ATOM
      1 CA         38.2214  -45.4521  -53.5110 C.3       0 UNK        -0.1968 
      2 C          36.7165  -45.3584  -53.7185 C.2       0 UNK         0.4852 
      3 O          36.1826  -46.0197  -54.6093 O.2       0 UNK        -0.5359 
      4 N          36.0374  -44.5350  -52.9105 N.am      1 UNK        -0.4300 
      5 CA         34.5818  -44.3624  -52.9151 C.3       1 UNK         0.0863 
      6 C6         34.1709  -43.0516  -52.1938 C.3       11 UNK        -0.0953 
      7 S7         34.3299  -41.6234  -53.3151 S.3       11 UNK        -0.2369 
      8 C8         32.5848  -41.1750  -53.6180 C.3       11 UNK         0.0226 
      9 C9         31.7187  -42.3610  -54.0319 C.ar      11 UNK        -0.0699 
     10 C10        32.0117  -43.0840  -55.1930 C.ar      11 UNK        -0.0804 
     11 C11        31.2324  -44.1866  -55.5534 C.ar      11 UNK        -0.0871 
     12 C12        30.1402  -44.5493  -54.7634 C.ar      11 UNK        -0.1008 
     13 C13        29.8280  -43.8279  -53.6094 C.ar      11 UNK        -0.0735 
     14 C14        30.6234  -42.7375  -53.2454 C.ar      11 UNK        -0.0945 
     15 C15        28.6430  -44.2438  -52.7500 C.3       11 UNK         0.0169 
     16 S16        27.1632  -43.2172  -53.0386 S.3       11 UNK        -0.2669 
     17 C17        26.8452  -43.4359  -54.8251 C.3       11 UNK        -0.0850 
     18 CA         26.1795  -44.7995  -55.1787 C.3       10 UNK         0.0855 
     19 C          24.6432  -44.8528  -54.9334 C.2       10 UNK         0.5543 
     20 N          24.0436  -46.0285  -55.0579 N.am      10 UNK        -0.7343 
     21 O          23.9920  -43.8517  -54.6433 O.2       10 UNK        -0.5027 
     22 N          26.5561  -45.2705  -56.5244 N.am      10 UNK        -0.4495 
     23 C          26.2488  -44.6407  -57.6676 C.2       10 UNK         0.4903 
     24 O          25.6093  -43.5896  -57.7175 O.2       10 UNK        -0.4860 
     25 CA         26.7470  -45.2455  -58.9877 C.3       9 UNK         0.0227 
     26 CB         28.0505  -44.5552  -59.4235 C.3       9 UNK        -0.1964 
     27 N          26.9748  -46.6932  -58.9311 N.am      9 UNK        -0.4231 
     28 C          26.4110  -47.5746  -59.7699 C.2       9 UNK         0.5014 
     29 O          25.5330  -47.2900  -60.5862 O.2       9 UNK        -0.5270 
     30 CA         26.9425  -49.0143  -59.7252 C.3       8 UNK         0.0284 
     31 CB         28.3795  -49.0850  -60.2720 C.3       8 UNK        -0.1977 
     32 N          26.8964  -49.5814  -58.3795 N.am      8 UNK        -0.4342 
     33 C          25.8170  -50.1551  -57.8312 C.2       8 UNK         0.5039 
     34 O          24.7279  -50.2522  -58.3978 O.2       8 UNK        -0.5547 
     35 CA         25.9833  -50.7476  -56.4195 C.3       7 UNK         0.0281 
     36 CB         26.2867  -52.2525  -56.5030 C.3       7 UNK        -0.1963 
     37 N          27.0368  -50.0912  -55.6429 N.am      7 UNK        -0.4444 
     38 C          26.9300  -48.8621  -55.1222 C.2       7 UNK         0.5104 
     39 O          25.9184  -48.1675  -55.2021 O.2       7 UNK        -0.5100 
     40 CA         28.1879  -48.2920  -54.4477 C.3       6 UNK         0.0396 
     41 CB         28.2647  -48.7614  -52.9876 C.3       6 UNK        -0.1801 
     42 N          29.4189  -48.6340  -55.1698 N.am      6 UNK        -0.4747 
     43 C          29.6948  -48.2334  -56.4234 C.2       6 UNK         0.5012 
     44 O          28.9466  -47.4956  -57.0699 O.2       6 UNK        -0.5003 
     45 CA         30.9738  -48.7761  -57.0980 C.3       5 UNK         0.0782 
     46 C46        31.9399  -47.6703  -57.5994 C.3       11 UNK        -0.0868 
     47 S47        32.5082  -46.4897  -56.3304 S.3       11 UNK        -0.2515 
     48 C48        31.5634  -45.0043  -56.7872 C.3       11 UNK         0.0199 
     49 N          31.6451  -49.8092  -56.2980 N.am      5 UNK        -0.4607 
     50 C          31.3076  -51.1077  -56.3518 C.2       4 UNK         0.5031 
     51 O          30.3773  -51.5366  -57.0353 O.2       4 UNK        -0.5119 
     52 CA         32.1224  -52.0995  -55.5034 C.3       4 UNK         0.0263 
     53 CB         33.3725  -52.5598  -56.2700 C.3       4 UNK        -0.1967 
     54 N          32.5180  -51.5766  -54.1951 N.am      4 UNK        -0.4237 
     55 C          31.6668  -51.2332  -53.2197 C.2       3 UNK         0.4908 
     56 O          30.4428  -51.3180  -53.3222 O.2       3 UNK        -0.5102 
     57 CA         32.2659  -50.6661  -51.9180 C.3       3 UNK         0.0241 
     58 CB         33.7854  -50.9064  -51.7576 C.3       3 UNK        -0.1971 
     59 N          31.9470  -49.2415  -51.7694 N.am      3 UNK        -0.4139 
     60 C          32.2397  -48.2626  -52.6393 C.2       2 UNK         0.5016 
     61 O          32.8622  -48.4489  -53.6865 O.2       2 UNK        -0.5319 
     62 CA         31.6995  -46.8530  -52.3241 C.3       2 UNK         0.0286 
     63 CB         31.2535  -46.6450  -50.8585 C.3       2 UNK        -0.1963 
     64 N          32.6231  -45.7943  -52.7379 N.am      2 UNK        -0.4790 
     65 C          33.8672  -45.5758  -52.2907 C.2       1 UNK         0.5024 
     66 O          34.4190  -46.2344  -51.4046 O.2       1 UNK        -0.4888 
     67 H67        38.5028  -46.4763  -53.2674 H         1 UNK         0.0892 
     68 H68        38.7446  -45.1620  -54.4217 H         1 UNK         0.0892 
     69 H69        38.5637  -44.8055  -52.7032 H         1 UNK         0.0892 
     70 H70        36.5317  -44.0344  -52.1866 H         1 UNK         0.3107 
     71 H71        34.2599  -44.3137  -53.9580 H         1 UNK         0.0773 
     72 H72        33.1453  -43.0916  -51.8226 H         1 UNK         0.0680 
     73 H73        34.7875  -42.8800  -51.3098 H         1 UNK         0.0680 
     74 H74        32.5469  -40.4164  -54.4007 H         1 UNK         0.0650 
     75 H75        32.1884  -40.7049  -52.7167 H         1 UNK         0.0650 
     76 H76        32.8596  -42.7994  -55.8015 H         1 UNK         0.1397 
     77 H77        29.5356  -45.3985  -55.0499 H         1 UNK         0.1363 
     78 H78        30.3856  -42.1828  -52.3479 H         1 UNK         0.1355 
     79 H79        28.9179  -44.1689  -51.6969 H         1 UNK         0.0707 
     80 H80        28.3957  -45.2924  -52.9180 H         1 UNK         0.0707 
     81 H81        27.7882  -43.3197  -55.3582 H         1 UNK         0.1034 
     82 H82        26.2319  -42.6036  -55.1747 H         1 UNK         0.1034 
     83 H83        26.5952  -45.5403  -54.4987 H         1 UNK         0.0482 
     84 H84        23.0498  -46.1030  -54.9127 H         1 UNK         0.3460 
     85 H85        24.6006  -46.8603  -55.2402 H         1 UNK         0.3460 
     86 H86        27.0541  -46.1480  -56.5650 H         1 UNK         0.2989 
     87 H87        25.9859  -45.0109  -59.7346 H         1 UNK         0.0559 
     88 H88        27.9193  -43.4743  -59.4916 H         1 UNK         0.0848 
     89 H89        28.3745  -44.9035  -60.4044 H         1 UNK         0.0848 
     90 H90        28.8594  -44.7417  -58.7178 H         1 UNK         0.0848 
     91 H91        27.6959  -47.0187  -58.2898 H         1 UNK         0.3144 
     92 H92        26.3141  -49.6226  -60.3801 H         1 UNK         0.0727 
     93 H93        28.7596  -50.1068  -60.2604 H         1 UNK         0.0790 
     94 H94        29.0690  -48.4623  -59.7024 H         1 UNK         0.0790 
     95 H95        28.4153  -48.7396  -61.3061 H         1 UNK         0.0790 
     96 H96        27.7372  -49.5243  -57.8261 H         1 UNK         0.3215 
     97 H97        25.0344  -50.6170  -55.8941 H         1 UNK         0.0863 
     98 H98        26.3314  -52.7042  -55.5118 H         1 UNK         0.0808 
     99 H99        27.2360  -52.4468  -57.0044 H         1 UNK         0.0808 
    100 H100       25.5096  -52.7768  -57.0613 H         1 UNK         0.0808 
    101 H101       27.9059  -50.5934  -55.5248 H         1 UNK         0.3118 
    102 H102       28.1062  -47.2062  -54.4461 H         1 UNK         0.0546 
    103 H103       27.3851  -48.4350  -52.4308 H         1 UNK         0.0828 
    104 H104       29.1341  -48.3561  -52.4761 H         1 UNK         0.0828 
    105 H105       28.3069  -49.8480  -52.9113 H         1 UNK         0.0828 
    106 H106       30.0613  -49.2700  -54.7160 H         1 UNK         0.3005 
    107 H107       30.6136  -49.2604  -58.0083 H         1 UNK         0.1257 
    108 H108       32.8249  -48.1344  -58.0374 H         1 UNK         0.0775 
    109 H109       31.4765  -47.1214  -58.4212 H         1 UNK         0.0775 
    110 H110       32.1335  -44.4159  -57.5077 H         1 UNK         0.0840 
    111 H111       30.6342  -45.2854  -57.2826 H         1 UNK         0.0840 
    112 H112       32.3749  -49.4951  -55.6675 H         1 UNK         0.2987 
    113 H113       31.4905  -52.9733  -55.3298 H         1 UNK         0.0785 
    114 H114       33.9094  -53.3365  -55.7249 H         1 UNK         0.0798 
    115 H115       34.0637  -51.7354  -56.4498 H         1 UNK         0.0798 
    116 H116       33.1028  -52.9767  -57.2415 H         1 UNK         0.0798 
    117 H117       33.5050  -51.4328  -54.0378 H         1 UNK         0.3079 
    118 H118       31.7628  -51.1867  -51.1017 H         1 UNK         0.0794 
    119 H119       34.0282  -51.9672  -51.8341 H         1 UNK         0.0786 
    120 H120       34.1278  -50.5731  -50.7778 H         1 UNK         0.0786 
    121 H121       34.3748  -50.3731  -52.5043 H         1 UNK         0.0786 
    122 H122       31.4129  -48.9990  -50.9471 H         1 UNK         0.3032 
    123 H123       30.8200  -46.7332  -52.9571 H         1 UNK         0.1094 
    124 H124       30.4175  -47.2933  -50.5947 H         1 UNK         0.0794 
    125 H125       32.0628  -46.8406  -50.1538 H         1 UNK         0.0794 
    126 H126       30.9177  -45.6208  -50.6952 H         1 UNK         0.0794 
    127 H127       32.2843  -45.2085  -53.4911 H         1 UNK         0.3016 
@<TRIPOS>BOND
     1    1    2 1    
     2    1   67 1    
     3    1   68 1    
     4    1   69 1    
     5    2    3 2    
     6    2    4 am   BACKBONE|DICT|INTERRES
     7    4    5 1    
     8    4   70 1    
     9    5    6 1    
    10    5   65 1    
    11    5   71 1    
    12    6    7 1    
    13    6   72 1    
    14    6   73 1    
    15    7    8 1    
    16    8    9 1    
    17    8   74 1    
    18    8   75 1    
    19    9   10 ar   
    20    9   14 ar   
    21   10   11 ar   
    22   10   76 1    
    23   11   12 ar   
    24   11   48 1    
    25   12   13 ar   
    26   12   77 1    
    27   13   14 ar   
    28   13   15 1    
    29   14   78 1    
    30   15   16 1    
    31   15   79 1    
    32   15   80 1    
    33   16   17 1    
    34   17   18 1    
    35   17   81 1    
    36   17   82 1    
    37   18   19 1    
    38   18   22 1    
    39   18   83 1    
    40   19   20 am   BACKBONE|DICT|INTERRES
    41   19   21 2    
    42   20   84 1    
    43   20   85 1    
    44   22   23 am   BACKBONE|DICT|INTERRES
    45   22   86 1    
    46   23   24 2    
    47   23   25 1    
    48   25   26 1    
    49   25   27 1    
    50   25   87 1    
    51   26   88 1    
    52   26   89 1    
    53   26   90 1    
    54   27   28 am   BACKBONE|DICT|INTERRES
    55   27   91 1    
    56   28   29 2    
    57   28   30 1    
    58   30   31 1    
    59   30   32 1    
    60   30   92 1    
    61   31   93 1    
    62   31   94 1    
    63   31   95 1    
    64   32   33 am   BACKBONE|DICT|INTERRES
    65   32   96 1    
    66   33   34 2    
    67   33   35 1    
    68   35   36 1    
    69   35   37 1    
    70   35   97 1    
    71   36   98 1    
    72   36   99 1    
    73   36  100 1    
    74   37   38 am   BACKBONE|DICT|INTERRES
    75   37  101 1    
    76   38   39 2    
    77   38   40 1    
    78   40   41 1    
    79   40   42 1    
    80   40  102 1    
    81   41  103 1    
    82   41  104 1    
    83   41  105 1    
    84   42   43 am   BACKBONE|DICT|INTERRES
    85   42  106 1    
    86   43   44 2    
    87   43   45 1    
    88   45   46 1    
    89   45   49 1    
    90   45  107 1    
    91   46   47 1    
    92   46  108 1    
    93   46  109 1    
    94   47   48 1    
    95   48  110 1    
    96   48  111 1    
    97   49   50 am   BACKBONE|DICT|INTERRES
    98   49  112 1    
    99   50   51 2    
   100   50   52 1    
   101   52   53 1    
   102   52   54 1    
   103   52  113 1    
   104   53  114 1    
   105   53  115 1    
   106   53  116 1    
   107   54   55 am   BACKBONE|DICT|INTERRES
   108   54  117 1    
   109   55   56 2    
   110   55   57 1    
   111   57   58 1    
   112   57   59 1    
   113   57  118 1    
   114   58  119 1    
   115   58  120 1    
   116   58  121 1    
   117   59   60 am   BACKBONE|DICT|INTERRES
   118   59  122 1    
   119   60   61 2    
   120   60   62 1    
   121   62   63 1    
   122   62   64 1    
   123   62  123 1    
   124   63  124 1    
   125   63  125 1    
   126   63  126 1    
   127   64   65 am   BACKBONE|DICT|INTERRES
   128   64  127 1    
   129   65   66 2    
@<TRIPOS>SUBSTRUCTURE
     1 UNK         1 GROUP             0       ****    0 ROOT    
