@<TRIPOS>MOLECULE
3R134
127   129    1
SMALL
USER_CHARGES


@<TRIPOS>ATOM
      1 CA         38.4931  -46.2516  -52.2283 C.3       0 UNK        -0.1968 
      2 C          37.2724  -46.5289  -53.0930 C.2       0 UNK         0.4852 
      3 O          37.2174  -47.5614  -53.7620 O.2       0 UNK        -0.5359 
      4 N          36.2854  -45.6230  -53.0754 N.am      1 UNK        -0.4300 
      5 CA         35.0412  -45.7119  -53.8511 C.3       1 UNK         0.0863 
      6 C6         34.4501  -44.3100  -54.1530 C.3       11 UNK        -0.0953 
      7 S7         33.9617  -43.3670  -52.6660 S.3       11 UNK        -0.2369 
      8 C8         32.8193  -42.1373  -53.3747 C.3       11 UNK         0.0226 
      9 C9         31.4878  -42.7484  -53.7930 C.ar      11 UNK        -0.0699 
     10 C10        30.5461  -43.1072  -52.8228 C.ar      11 UNK        -0.0804 
     11 C11        29.3180  -43.6621  -53.1966 C.ar      11 UNK        -0.0871 
     12 C12        29.0294  -43.8354  -54.5535 C.ar      11 UNK        -0.1008 
     13 C13        29.9541  -43.4708  -55.5339 C.ar      11 UNK        -0.0735 
     14 C14        31.1851  -42.9306  -55.1475 C.ar      11 UNK        -0.0945 
     15 C15        29.6081  -43.6509  -57.0055 C.3       11 UNK         0.0169 
     16 S16        28.2315  -42.5588  -57.4844 S.3       11 UNK        -0.2669 
     17 C17        28.2983  -42.6290  -59.3050 C.3       11 UNK        -0.0850 
     18 CA         27.0978  -43.3968  -59.9362 C.3       10 UNK         0.0855 
     19 C          26.9752  -43.1489  -61.4730 C.2       10 UNK         0.5543 
     20 N          26.5018  -44.1060  -62.2625 N.am      10 UNK        -0.7343 
     21 O          27.2812  -42.0626  -61.9592 O.2       10 UNK        -0.5027 
     22 N          27.0266  -44.8202  -59.5486 N.am      10 UNK        -0.4495 
     23 C          27.9502  -45.7559  -59.8031 C.2       10 UNK         0.4903 
     24 O          29.0541  -45.5147  -60.2934 O.2       10 UNK        -0.4860 
     25 CA         27.5600  -47.2102  -59.4809 C.3       9 UNK         0.0227 
     26 CB         28.7219  -48.1982  -59.6944 C.3       9 UNK        -0.1964 
     27 N          27.0459  -47.3743  -58.1210 N.am      9 UNK        -0.4231 
     28 C          25.7812  -47.1828  -57.7254 C.2       9 UNK         0.5014 
     29 O          24.9121  -46.6920  -58.4493 O.2       9 UNK        -0.5270 
     30 CA         25.4461  -47.6275  -56.2851 C.3       8 UNK         0.0284 
     31 CB         23.9303  -47.7112  -56.0093 C.3       8 UNK        -0.1977 
     32 N          26.1250  -48.8807  -55.9227 N.am      8 UNK        -0.4342 
     33 C          26.0045  -50.0827  -56.5081 C.2       8 UNK         0.5039 
     34 O          25.1592  -50.3522  -57.3625 O.2       8 UNK        -0.5547 
     35 CA         27.0277  -51.1667  -56.1139 C.3       7 UNK         0.0281 
     36 CB         28.0806  -51.3273  -57.2227 C.3       7 UNK        -0.1963 
     37 N          27.7176  -50.9039  -54.8478 N.am      7 UNK        -0.4444 
     38 C          27.1686  -51.0715  -53.6371 C.2       7 UNK         0.5104 
     39 O          26.0307  -51.5049  -53.4536 O.2       7 UNK        -0.5100 
     40 CA         28.0262  -50.6627  -52.4260 C.3       6 UNK         0.0396 
     41 CB         28.9898  -51.7947  -52.0373 C.3       6 UNK        -0.1801 
     42 N          28.7843  -49.4285  -52.6500 N.am      6 UNK        -0.4747 
     43 C          28.2357  -48.2244  -52.8711 C.2       6 UNK         0.5012 
     44 O          27.0222  -48.0164  -52.8785 O.2       6 UNK        -0.5003 
     45 CA         29.1968  -47.0728  -53.2134 C.3       5 UNK         0.0782 
     46 C46        29.8902  -46.4770  -51.9629 C.3       11 UNK        -0.0868 
     47 S47        28.8743  -45.3329  -50.9666 S.3       11 UNK        -0.2515 
     48 C48        28.2874  -44.0658  -52.1474 C.3       11 UNK         0.0199 
     49 N          30.1810  -47.4611  -54.2228 N.am      5 UNK        -0.4607 
     50 C          29.9087  -47.8055  -55.4859 C.2       4 UNK         0.5031 
     51 O          28.7828  -47.7838  -55.9752 O.2       4 UNK        -0.5119 
     52 CA         31.0846  -48.2970  -56.3407 C.3       4 UNK         0.0263 
     53 CB         31.7874  -47.1145  -57.0278 C.3       4 UNK        -0.1967 
     54 N          32.0461  -49.0725  -55.5542 N.am      4 UNK        -0.4237 
     55 C          31.7908  -50.2800  -55.0285 C.2       3 UNK         0.4908 
     56 O          30.7377  -50.8945  -55.2030 O.2       3 UNK        -0.5102 
     57 CA         32.8762  -50.8781  -54.1170 C.3       3 UNK         0.0241 
     58 CB         34.0119  -51.4935  -54.9501 C.3       3 UNK        -0.1971 
     59 N          33.4265  -49.8960  -53.1773 N.am      3 UNK        -0.4139 
     60 C          32.7257  -49.3320  -52.1830 C.2       2 UNK         0.5016 
     61 O          31.5571  -49.6172  -51.9244 O.2       2 UNK        -0.5319 
     62 CA         33.4245  -48.2312  -51.3642 C.3       2 UNK         0.0286 
     63 CB         34.2023  -48.8477  -50.1912 C.3       2 UNK        -0.1963 
     64 N          34.3183  -47.3559  -52.1337 N.am      2 UNK        -0.4790 
     65 C          33.9907  -46.6680  -53.2393 C.2       1 UNK         0.5024 
     66 O          32.8942  -46.7683  -53.7859 O.2       1 UNK        -0.4888 
     67 H67        39.3873  -46.1992  -52.8488 H         1 UNK         0.0892 
     68 H68        38.4029  -45.3115  -51.6842 H         1 UNK         0.0892 
     69 H69        38.6288  -47.0523  -51.5018 H         1 UNK         0.0892 
     70 H70        36.3703  -44.7997  -52.4949 H         1 UNK         0.3107 
     71 H71        35.2933  -46.1513  -54.8187 H         1 UNK         0.0773 
     72 H72        33.5909  -44.4051  -54.8185 H         1 UNK         0.0680 
     73 H73        35.1800  -43.7149  -54.7039 H         1 UNK         0.0680 
     74 H74        32.6369  -41.3613  -52.6300 H         1 UNK         0.0650 
     75 H75        33.3024  -41.6413  -54.2180 H         1 UNK         0.0650 
     76 H76        30.7746  -42.9669  -51.7750 H         1 UNK         0.1397 
     77 H77        28.0766  -44.2472  -54.8576 H         1 UNK         0.1363 
     78 H78        31.9058  -42.6439  -55.9010 H         1 UNK         0.1355 
     79 H79        29.3298  -44.6893  -57.1924 H         1 UNK         0.0707 
     80 H80        30.4781  -43.4410  -57.6296 H         1 UNK         0.0707 
     81 H81        29.2505  -43.0424  -59.6382 H         1 UNK         0.1034 
     82 H82        28.3027  -41.5914  -59.6437 H         1 UNK         0.1034 
     83 H83        26.1901  -42.9515  -59.5276 H         1 UNK         0.0482 
     84 H84        26.4153  -43.9322  -63.2516 H         1 UNK         0.3460 
     85 H85        26.2244  -44.9950  -61.8792 H         1 UNK         0.3460 
     86 H86        26.1445  -45.1314  -59.1569 H         1 UNK         0.2989 
     87 H87        26.7708  -47.4849  -60.1838 H         1 UNK         0.0559 
     88 H88        29.5615  -47.9805  -59.0351 H         1 UNK         0.0848 
     89 H89        29.0925  -48.1530  -60.7193 H         1 UNK         0.0848 
     90 H90        28.4072  -49.2259  -59.5144 H         1 UNK         0.0848 
     91 H91        27.7155  -47.6689  -57.4108 H         1 UNK         0.3144 
     92 H92        25.8595  -46.8610  -55.6278 H         1 UNK         0.0727 
     93 H93        23.4346  -48.4178  -56.6754 H         1 UNK         0.0790 
     94 H94        23.4539  -46.7408  -56.1538 H         1 UNK         0.0790 
     95 H95        23.7319  -48.0202  -54.9831 H         1 UNK         0.0790 
     96 H96        26.8880  -48.7709  -55.2660 H         1 UNK         0.3215 
     97 H97        26.4834  -52.1091  -56.0219 H         1 UNK         0.0863 
     98 H98        28.6762  -50.4222  -57.3429 H         1 UNK         0.0808 
     99 H99        27.6111  -51.5413  -58.1839 H         1 UNK         0.0808 
    100 H100       28.7635  -52.1488  -57.0053 H         1 UNK         0.0808 
    101 H101       28.6886  -50.6121  -54.9044 H         1 UNK         0.3118 
    102 H102       27.3515  -50.4879  -51.5855 H         1 UNK         0.0546 
    103 H103       29.5416  -51.5503  -51.1294 H         1 UNK         0.0828 
    104 H104       29.7174  -51.9943  -52.8248 H         1 UNK         0.0828 
    105 H105       28.4483  -52.7225  -51.8483 H         1 UNK         0.0828 
    106 H106       29.7993  -49.5033  -52.6079 H         1 UNK         0.3005 
    107 H107       28.5796  -46.3089  -53.6805 H         1 UNK         0.1257 
    108 H108       30.7812  -45.9213  -52.2597 H         1 UNK         0.0775 
    109 H109       30.2537  -47.2690  -51.3066 H         1 UNK         0.0775 
    110 H110       27.3779  -44.4365  -52.6229 H         1 UNK         0.0840 
    111 H111       27.9891  -43.1790  -51.5867 H         1 UNK         0.0840 
    112 H112       31.1571  -47.4245  -53.9416 H         1 UNK         0.2987 
    113 H113       30.6828  -48.9527  -57.1153 H         1 UNK         0.0785 
    114 H114       32.6021  -47.4537  -57.6675 H         1 UNK         0.0798 
    115 H115       31.0903  -46.5615  -57.6589 H         1 UNK         0.0798 
    116 H116       32.1971  -46.4066  -56.3068 H         1 UNK         0.0798 
    117 H117       32.9052  -48.6054  -55.3020 H         1 UNK         0.3079 
    118 H118       32.4117  -51.6762  -53.5336 H         1 UNK         0.0794 
    119 H119       34.7396  -51.9989  -54.3148 H         1 UNK         0.0786 
    120 H120       34.5424  -50.7410  -55.5350 H         1 UNK         0.0786 
    121 H121       33.6237  -52.2360  -55.6488 H         1 UNK         0.0786 
    122 H122       34.3817  -49.5994  -53.3185 H         1 UNK         0.3032 
    123 H123       32.6387  -47.5963  -50.9509 H         1 UNK         0.1094 
    124 H124       33.5573  -49.4903  -49.5897 H         1 UNK         0.0794 
    125 H125       35.0391  -49.4566  -50.5359 H         1 UNK         0.0794 
    126 H126       34.5968  -48.0782  -49.5274 H         1 UNK         0.0794 
    127 H127       35.2472  -47.2207  -51.7626 H         1 UNK         0.3016 
@<TRIPOS>BOND
     1    1    2 1    
     2    1   67 1    
     3    1   68 1    
     4    1   69 1    
     5    2    3 2    
     6    2    4 am   BACKBONE|DICT|INTERRES
     7    4    5 1    
     8    4   70 1    
     9    5    6 1    
    10    5   65 1    
    11    5   71 1    
    12    6    7 1    
    13    6   72 1    
    14    6   73 1    
    15    7    8 1    
    16    8    9 1    
    17    8   74 1    
    18    8   75 1    
    19    9   10 ar   
    20    9   14 ar   
    21   10   11 ar   
    22   10   76 1    
    23   11   12 ar   
    24   11   48 1    
    25   12   13 ar   
    26   12   77 1    
    27   13   14 ar   
    28   13   15 1    
    29   14   78 1    
    30   15   16 1    
    31   15   79 1    
    32   15   80 1    
    33   16   17 1    
    34   17   18 1    
    35   17   81 1    
    36   17   82 1    
    37   18   19 1    
    38   18   22 1    
    39   18   83 1    
    40   19   20 am   BACKBONE|DICT|INTERRES
    41   19   21 2    
    42   20   84 1    
    43   20   85 1    
    44   22   23 am   BACKBONE|DICT|INTERRES
    45   22   86 1    
    46   23   24 2    
    47   23   25 1    
    48   25   26 1    
    49   25   27 1    
    50   25   87 1    
    51   26   88 1    
    52   26   89 1    
    53   26   90 1    
    54   27   28 am   BACKBONE|DICT|INTERRES
    55   27   91 1    
    56   28   29 2    
    57   28   30 1    
    58   30   31 1    
    59   30   32 1    
    60   30   92 1    
    61   31   93 1    
    62   31   94 1    
    63   31   95 1    
    64   32   33 am   BACKBONE|DICT|INTERRES
    65   32   96 1    
    66   33   34 2    
    67   33   35 1    
    68   35   36 1    
    69   35   37 1    
    70   35   97 1    
    71   36   98 1    
    72   36   99 1    
    73   36  100 1    
    74   37   38 am   BACKBONE|DICT|INTERRES
    75   37  101 1    
    76   38   39 2    
    77   38   40 1    
    78   40   41 1    
    79   40   42 1    
    80   40  102 1    
    81   41  103 1    
    82   41  104 1    
    83   41  105 1    
    84   42   43 am   BACKBONE|DICT|INTERRES
    85   42  106 1    
    86   43   44 2    
    87   43   45 1    
    88   45   46 1    
    89   45   49 1    
    90   45  107 1    
    91   46   47 1    
    92   46  108 1    
    93   46  109 1    
    94   47   48 1    
    95   48  110 1    
    96   48  111 1    
    97   49   50 am   BACKBONE|DICT|INTERRES
    98   49  112 1    
    99   50   51 2    
   100   50   52 1    
   101   52   53 1    
   102   52   54 1    
   103   52  113 1    
   104   53  114 1    
   105   53  115 1    
   106   53  116 1    
   107   54   55 am   BACKBONE|DICT|INTERRES
   108   54  117 1    
   109   55   56 2    
   110   55   57 1    
   111   57   58 1    
   112   57   59 1    
   113   57  118 1    
   114   58  119 1    
   115   58  120 1    
   116   58  121 1    
   117   59   60 am   BACKBONE|DICT|INTERRES
   118   59  122 1    
   119   60   61 2    
   120   60   62 1    
   121   62   63 1    
   122   62   64 1    
   123   62  123 1    
   124   63  124 1    
   125   63  125 1    
   126   63  126 1    
   127   64   65 am   BACKBONE|DICT|INTERRES
   128   64  127 1    
   129   65   66 2    
@<TRIPOS>SUBSTRUCTURE
     1 UNK         1 GROUP             0       ****    0 ROOT    
