@<TRIPOS>MOLECULE
3R134
127   129    1
SMALL
USER_CHARGES


@<TRIPOS>ATOM
      1 CA         38.0096  -44.1323  -51.1139 C.3       0 UNK        -0.1968 
      2 C          36.8838  -44.3239  -52.1195 C.2       0 UNK         0.4852 
      3 O          37.1494  -44.4473  -53.3160 O.2       0 UNK        -0.5359 
      4 N          35.6318  -44.3445  -51.6424 N.am      1 UNK        -0.4300 
      5 CA         34.4229  -44.5267  -52.4561 C.3       1 UNK         0.0863 
      6 C6         33.1420  -44.1807  -51.6609 C.3       11 UNK        -0.0953 
      7 S7         33.0557  -42.4277  -51.1422 S.3       11 UNK        -0.2369 
      8 C8         32.7538  -41.5146  -52.7001 C.3       11 UNK         0.0226 
      9 C9         31.8150  -42.2501  -53.6454 C.ar      11 UNK        -0.0699 
     10 C10        30.4879  -42.4872  -53.2771 C.ar      11 UNK        -0.0804 
     11 C11        29.6695  -43.2908  -54.0740 C.ar      11 UNK        -0.0871 
     12 C12        30.1731  -43.8214  -55.2643 C.ar      11 UNK        -0.1008 
     13 C13        31.4855  -43.5581  -55.6660 C.ar      11 UNK        -0.0735 
     14 C14        32.2990  -42.7650  -54.8520 C.ar      11 UNK        -0.0945 
     15 C15        32.0622  -44.1872  -56.9291 C.3       11 UNK         0.0169 
     16 S16        31.1421  -43.7515  -58.4424 S.3       11 UNK        -0.2669 
     17 C17        29.8660  -45.0579  -58.5205 C.3       11 UNK        -0.0850 
     18 CA         28.4179  -44.5019  -58.4267 C.3       10 UNK         0.0855 
     19 C          27.8947  -44.0420  -59.8235 C.2       10 UNK         0.5543 
     20 N          26.9636  -44.7485  -60.4553 N.am      10 UNK        -0.7343 
     21 O          28.3343  -43.0184  -60.3403 O.2       10 UNK        -0.5027 
     22 N          27.5394  -45.4498  -57.7219 N.am      10 UNK        -0.4495 
     23 C          26.2958  -45.1760  -57.3016 C.2       10 UNK         0.4903 
     24 O          25.8227  -44.0393  -57.2751 O.2       10 UNK        -0.4860 
     25 CA         25.4304  -46.3743  -56.8514 C.3       9 UNK         0.0227 
     26 CB         23.9278  -46.1478  -57.1214 C.3       9 UNK        -0.1964 
     27 N          25.8703  -47.6639  -57.4086 N.am      9 UNK        -0.4231 
     28 C          25.9734  -47.9882  -58.7079 C.2       9 UNK         0.5014 
     29 O          25.6296  -47.2395  -59.6239 O.2       9 UNK        -0.5270 
     30 CA         26.6219  -49.3349  -59.0651 C.3       8 UNK         0.0284 
     31 CB         27.8829  -49.1126  -59.9218 C.3       8 UNK        -0.1977 
     32 N          26.9962  -50.1264  -57.8872 N.am      8 UNK        -0.4342 
     33 C          26.5688  -51.3740  -57.6516 C.2       8 UNK         0.5039 
     34 O          25.7370  -51.9586  -58.3474 O.2       8 UNK        -0.5547 
     35 CA         27.1882  -52.1195  -56.4595 C.3       7 UNK         0.0281 
     36 CB         28.5276  -52.7587  -56.8615 C.3       7 UNK        -0.1963 
     37 N          27.3853  -51.2908  -55.2700 N.am      7 UNK        -0.4444 
     38 C          26.4001  -50.8790  -54.4605 C.2       7 UNK         0.5104 
     39 O          25.2030  -51.0475  -54.6922 O.2       7 UNK        -0.5100 
     40 CA         26.8266  -50.1749  -53.1641 C.3       6 UNK         0.0396 
     41 CB         27.3511  -51.1940  -52.1386 C.3       6 UNK        -0.1801 
     42 N          27.8567  -49.1706  -53.4269 N.am      6 UNK        -0.4747 
     43 C          27.5996  -47.8778  -53.6684 C.2       6 UNK         0.5012 
     44 O          26.4683  -47.3965  -53.6250 O.2       6 UNK        -0.5003 
     45 CA         28.7901  -46.9718  -54.0548 C.3       5 UNK         0.0782 
     46 C46        29.3450  -46.1874  -52.8402 C.3       11 UNK        -0.0868 
     47 S47        28.2580  -44.8407  -52.2457 S.3       11 UNK        -0.2515 
     48 C48        28.2610  -43.6383  -53.6203 C.3       11 UNK         0.0199 
     49 N          29.8602  -47.7088  -54.7342 N.am      5 UNK        -0.4607 
     50 C          29.7542  -48.2439  -55.9579 C.2       4 UNK         0.5031 
     51 O          28.7674  -48.0967  -56.6794 O.2       4 UNK        -0.5119 
     52 CA         30.9120  -49.1296  -56.4532 C.3       4 UNK         0.0263 
     53 CB         31.8570  -48.3307  -57.3619 C.3       4 UNK        -0.1967 
     54 N          31.6914  -49.7582  -55.3819 N.am      4 UNK        -0.4237 
     55 C          31.2040  -50.5901  -54.4499 C.2       3 UNK         0.4908 
     56 O          30.0246  -50.9387  -54.4047 O.2       3 UNK        -0.5102 
     57 CA         32.1703  -51.0988  -53.3667 C.3       3 UNK         0.0241 
     58 CB         32.5707  -52.5544  -53.6554 C.3       3 UNK        -0.1971 
     59 N          33.3811  -50.2860  -53.2002 N.am      3 UNK        -0.4139 
     60 C          33.4112  -49.0165  -52.7683 C.2       2 UNK         0.5016 
     61 O          32.3972  -48.3781  -52.4721 O.2       2 UNK        -0.5319 
     62 CA         34.8139  -48.3843  -52.6330 C.3       2 UNK         0.0286 
     63 CB         35.6991  -48.6353  -53.8759 C.3       2 UNK        -0.1963 
     64 N          34.7891  -46.9519  -52.3054 N.am      2 UNK        -0.4790 
     65 C          34.3122  -45.9454  -53.0567 C.2       1 UNK         0.5024 
     66 O          33.8189  -46.0894  -54.1767 O.2       1 UNK        -0.4888 
     67 H67        38.6859  -44.9863  -51.1409 H         1 UNK         0.0892 
     68 H68        38.5810  -43.2369  -51.3569 H         1 UNK         0.0892 
     69 H69        37.6349  -44.0287  -50.0957 H         1 UNK         0.0892 
     70 H70        35.4749  -44.2075  -50.6539 H         1 UNK         0.3107 
     71 H71        34.4962  -43.8406  -53.3014 H         1 UNK         0.0773 
     72 H72        32.2459  -44.4296  -52.2306 H         1 UNK         0.0680 
     73 H73        33.0834  -44.7948  -50.7605 H         1 UNK         0.0680 
     74 H74        33.7146  -41.3273  -53.1820 H         1 UNK         0.0650 
     75 H75        32.3353  -40.5357  -52.4625 H         1 UNK         0.0650 
     76 H76        30.1147  -42.1044  -52.3368 H         1 UNK         0.1397 
     77 H77        29.5477  -44.4627  -55.8635 H         1 UNK         0.1363 
     78 H78        33.3275  -42.5882  -55.1351 H         1 UNK         0.1355 
     79 H79        32.1058  -45.2683  -56.8049 H         1 UNK         0.0707 
     80 H80        33.0954  -43.8659  -57.0692 H         1 UNK         0.0707 
     81 H81        30.0089  -45.6394  -59.4337 H         1 UNK         0.1034 
     82 H82        30.0514  -45.7633  -57.7114 H         1 UNK         0.1034 
     83 H83        28.4376  -43.6038  -57.8062 H         1 UNK         0.0482 
     84 H84        26.5676  -45.5903  -60.0480 H         1 UNK         0.3460 
     85 H85        26.6358  -44.4310  -61.3532 H         1 UNK         0.3460 
     86 H86        27.8545  -46.4112  -57.6747 H         1 UNK         0.2989 
     87 H87        25.5571  -46.4434  -55.7733 H         1 UNK         0.0559 
     88 H88        23.5609  -45.2709  -56.5866 H         1 UNK         0.0848 
     89 H89        23.3325  -46.9983  -56.7895 H         1 UNK         0.0848 
     90 H90        23.7253  -45.9888  -58.1810 H         1 UNK         0.0848 
     91 H91        26.2009  -48.3382  -56.7337 H         1 UNK         0.3144 
     92 H92        25.8905  -49.8697  -59.6741 H         1 UNK         0.0727 
     93 H93        28.6437  -48.5453  -59.3844 H         1 UNK         0.0790 
     94 H94        27.6489  -48.5613  -60.8337 H         1 UNK         0.0790 
     95 H95        28.3260  -50.0611  -60.2256 H         1 UNK         0.0790 
     96 H96        27.6882  -49.7088  -57.2735 H         1 UNK         0.3215 
     97 H97        26.5030  -52.9270  -56.1908 H         1 UNK         0.0863 
     98 H98        28.9384  -53.3612  -56.0510 H         1 UNK         0.0808 
     99 H99        29.2719  -52.0087  -57.1286 H         1 UNK         0.0808 
    100 H100       28.4036  -53.4164  -57.7230 H         1 UNK         0.0808 
    101 H101       28.3491  -51.1371  -54.9755 H         1 UNK         0.3118 
    102 H102       25.9429  -49.7004  -52.7318 H         1 UNK         0.0546 
    103 H103       27.6060  -50.7094  -51.1962 H         1 UNK         0.0828 
    104 H104       28.2391  -51.7169  -52.4954 H         1 UNK         0.0828 
    105 H105       26.5952  -51.9492  -51.9195 H         1 UNK         0.0828 
    106 H106       28.8038  -49.5137  -53.5389 H         1 UNK         0.3005 
    107 H107       28.4003  -46.2563  -54.7794 H         1 UNK         0.1257 
    108 H108       30.3138  -45.7501  -53.0858 H         1 UNK         0.0775 
    109 H109       29.5451  -46.8637  -52.0067 H         1 UNK         0.0775 
    110 H110       27.6692  -44.0289  -54.4494 H         1 UNK         0.0840 
    111 H111       27.7524  -42.7300  -53.2938 H         1 UNK         0.0840 
    112 H112       30.7050  -47.8726  -54.2011 H         1 UNK         0.2987 
    113 H113       30.4674  -49.9287  -57.0485 H         1 UNK         0.0785 
    114 H114       31.3096  -47.8378  -58.1663 H         1 UNK         0.0798 
    115 H115       32.5955  -48.9807  -57.8313 H         1 UNK         0.0798 
    116 H116       32.3956  -47.5636  -56.8052 H         1 UNK         0.0798 
    117 H117       32.6713  -49.5211  -55.3369 H         1 UNK         0.3079 
    118 H118       31.6252  -51.0763  -52.4206 H         1 UNK         0.0794 
    119 H119       31.6890  -53.1896  -53.7561 H         1 UNK         0.0786 
    120 H120       33.1735  -52.9690  -52.8471 H         1 UNK         0.0786 
    121 H121       33.1415  -52.6413  -54.5809 H         1 UNK         0.0786 
    122 H122       34.2571  -50.7426  -53.4107 H         1 UNK         0.3032 
    123 H123       35.2859  -48.8768  -51.7810 H         1 UNK         0.1094 
    124 H124       36.6542  -48.1166  -53.7897 H         1 UNK         0.0794 
    125 H125       35.9280  -49.6937  -54.0021 H         1 UNK         0.0794 
    126 H126       35.2198  -48.2926  -54.7937 H         1 UNK         0.0794 
    127 H127       35.1476  -46.7123  -51.3918 H         1 UNK         0.3016 
@<TRIPOS>BOND
     1    1    2 1    
     2    1   67 1    
     3    1   68 1    
     4    1   69 1    
     5    2    3 2    
     6    2    4 am   BACKBONE|DICT|INTERRES
     7    4    5 1    
     8    4   70 1    
     9    5    6 1    
    10    5   65 1    
    11    5   71 1    
    12    6    7 1    
    13    6   72 1    
    14    6   73 1    
    15    7    8 1    
    16    8    9 1    
    17    8   74 1    
    18    8   75 1    
    19    9   10 ar   
    20    9   14 ar   
    21   10   11 ar   
    22   10   76 1    
    23   11   12 ar   
    24   11   48 1    
    25   12   13 ar   
    26   12   77 1    
    27   13   14 ar   
    28   13   15 1    
    29   14   78 1    
    30   15   16 1    
    31   15   79 1    
    32   15   80 1    
    33   16   17 1    
    34   17   18 1    
    35   17   81 1    
    36   17   82 1    
    37   18   19 1    
    38   18   22 1    
    39   18   83 1    
    40   19   20 am   BACKBONE|DICT|INTERRES
    41   19   21 2    
    42   20   84 1    
    43   20   85 1    
    44   22   23 am   BACKBONE|DICT|INTERRES
    45   22   86 1    
    46   23   24 2    
    47   23   25 1    
    48   25   26 1    
    49   25   27 1    
    50   25   87 1    
    51   26   88 1    
    52   26   89 1    
    53   26   90 1    
    54   27   28 am   BACKBONE|DICT|INTERRES
    55   27   91 1    
    56   28   29 2    
    57   28   30 1    
    58   30   31 1    
    59   30   32 1    
    60   30   92 1    
    61   31   93 1    
    62   31   94 1    
    63   31   95 1    
    64   32   33 am   BACKBONE|DICT|INTERRES
    65   32   96 1    
    66   33   34 2    
    67   33   35 1    
    68   35   36 1    
    69   35   37 1    
    70   35   97 1    
    71   36   98 1    
    72   36   99 1    
    73   36  100 1    
    74   37   38 am   BACKBONE|DICT|INTERRES
    75   37  101 1    
    76   38   39 2    
    77   38   40 1    
    78   40   41 1    
    79   40   42 1    
    80   40  102 1    
    81   41  103 1    
    82   41  104 1    
    83   41  105 1    
    84   42   43 am   BACKBONE|DICT|INTERRES
    85   42  106 1    
    86   43   44 2    
    87   43   45 1    
    88   45   46 1    
    89   45   49 1    
    90   45  107 1    
    91   46   47 1    
    92   46  108 1    
    93   46  109 1    
    94   47   48 1    
    95   48  110 1    
    96   48  111 1    
    97   49   50 am   BACKBONE|DICT|INTERRES
    98   49  112 1    
    99   50   51 2    
   100   50   52 1    
   101   52   53 1    
   102   52   54 1    
   103   52  113 1    
   104   53  114 1    
   105   53  115 1    
   106   53  116 1    
   107   54   55 am   BACKBONE|DICT|INTERRES
   108   54  117 1    
   109   55   56 2    
   110   55   57 1    
   111   57   58 1    
   112   57   59 1    
   113   57  118 1    
   114   58  119 1    
   115   58  120 1    
   116   58  121 1    
   117   59   60 am   BACKBONE|DICT|INTERRES
   118   59  122 1    
   119   60   61 2    
   120   60   62 1    
   121   62   63 1    
   122   62   64 1    
   123   62  123 1    
   124   63  124 1    
   125   63  125 1    
   126   63  126 1    
   127   64   65 am   BACKBONE|DICT|INTERRES
   128   64  127 1    
   129   65   66 2    
@<TRIPOS>SUBSTRUCTURE
     1 UNK         1 GROUP             0       ****    0 ROOT    
