@<TRIPOS>MOLECULE
3R134
127   129    1
SMALL
USER_CHARGES


@<TRIPOS>ATOM
      1 CA         31.0213  -47.5114  -58.1760 C.3       0 UNK        -0.1968 
      2 C          32.2169  -46.9887  -57.3943 C.2       0 UNK         0.4852 
      3 O          33.3499  -47.1043  -57.8622 O.2       0 UNK        -0.5359 
      4 N          31.9593  -46.4113  -56.2141 N.am      1 UNK        -0.4300 
      5 CA         32.9299  -45.8538  -55.2666 C.3       1 UNK         0.0863 
      6 C6         33.7499  -44.6418  -55.7963 C.3       11 UNK        -0.0953 
      7 S7         32.7225  -43.2592  -56.3884 S.3       11 UNK        -0.2369 
      8 C8         32.6581  -42.1595  -54.9406 C.3       11 UNK         0.0226 
      9 C9         31.6667  -42.6490  -53.8947 C.ar      11 UNK        -0.0699 
     10 C10        32.1111  -43.3802  -52.7905 C.ar      11 UNK        -0.0804 
     11 C11        31.2080  -43.8100  -51.8156 C.ar      11 UNK        -0.0871 
     12 C12        29.8522  -43.4937  -51.9469 C.ar      11 UNK        -0.1008 
     13 C13        29.3891  -42.7547  -53.0404 C.ar      11 UNK        -0.0735 
     14 C14        30.3080  -42.3376  -54.0135 C.ar      11 UNK        -0.0945 
     15 C15        27.9109  -42.3603  -53.0784 C.3       11 UNK         0.0169 
     16 S16        27.2355  -41.9447  -54.7243 S.3       11 UNK        -0.2669 
     17 C17        26.8071  -43.5840  -55.3987 C.3       11 UNK        -0.0850 
     18 CA         27.4905  -43.8540  -56.7680 C.3       10 UNK         0.0855 
     19 C          28.8693  -44.5531  -56.6486 C.2       10 UNK         0.5543 
     20 N          29.7969  -44.2105  -57.5287 N.am      10 UNK        -0.7343 
     21 O          29.0971  -45.4003  -55.7840 O.2       10 UNK        -0.5027 
     22 N          26.6120  -44.5921  -57.6832 N.am      10 UNK        -0.4495 
     23 C          26.6572  -44.5190  -59.0192 C.2       10 UNK         0.4903 
     24 O          27.4259  -43.7827  -59.6405 O.2       10 UNK        -0.4860 
     25 CA         25.6803  -45.4344  -59.7861 C.3       9 UNK         0.0227 
     26 CB         25.5102  -45.0092  -61.2569 C.3       9 UNK        -0.1964 
     27 N          26.0952  -46.8394  -59.7431 N.am      9 UNK        -0.4231 
     28 C          26.0377  -47.6263  -58.6619 C.2       9 UNK         0.5014 
     29 O          25.5837  -47.2460  -57.5783 O.2       9 UNK        -0.5270 
     30 CA         26.5762  -49.0621  -58.8053 C.3       8 UNK         0.0284 
     31 CB         27.8503  -49.1413  -59.6688 C.3       8 UNK        -0.1977 
     32 N          26.8776  -49.5596  -57.4670 N.am      8 UNK        -0.4342 
     33 C          26.2801  -50.5848  -56.8498 C.2       8 UNK         0.5039 
     34 O          25.5402  -51.3968  -57.4070 O.2       8 UNK        -0.5547 
     35 CA         26.5309  -50.6955  -55.3358 C.3       7 UNK         0.0281 
     36 CB         27.7205  -51.6235  -55.0481 C.3       7 UNK        -0.1963 
     37 N          26.7768  -49.3730  -54.7494 N.am      7 UNK        -0.4444 
     38 C          25.8053  -48.5088  -54.4169 C.2       7 UNK         0.5104 
     39 O          24.6089  -48.8041  -54.4156 O.2       7 UNK        -0.5100 
     40 CA         26.2280  -47.0652  -54.0671 C.3       6 UNK         0.0396 
     41 CB         25.3116  -46.4138  -53.0097 C.3       6 UNK        -0.1801 
     42 N          27.6436  -46.9203  -53.7042 N.am      6 UNK        -0.4747 
     43 C          28.2602  -47.4666  -52.6462 C.2       6 UNK         0.5012 
     44 O          27.6931  -48.1522  -51.7932 O.2       6 UNK        -0.5003 
     45 CA         29.7841  -47.2556  -52.5549 C.3       5 UNK         0.0782 
     46 C46        30.1841  -46.9066  -51.0983 C.3       11 UNK        -0.0868 
     47 S47        31.9137  -46.3541  -50.9553 S.3       11 UNK        -0.2515 
     48 C48        31.7086  -44.5804  -50.6022 C.3       11 UNK         0.0199 
     49 N          30.5129  -48.4352  -53.0431 N.am      5 UNK        -0.4607 
     50 C          30.3806  -49.0306  -54.2381 C.2       4 UNK         0.5031 
     51 O          29.6120  -48.6371  -55.1174 O.2       4 UNK        -0.5119 
     52 CA         31.2384  -50.2804  -54.4961 C.3       4 UNK         0.0263 
     53 CB         31.5207  -50.5181  -55.9947 C.3       4 UNK        -0.1967 
     54 N          32.5038  -50.2339  -53.7644 N.am      4 UNK        -0.4237 
     55 C          33.1973  -51.3089  -53.3645 C.2       3 UNK         0.4908 
     56 O          32.7725  -52.4624  -53.4556 O.2       3 UNK        -0.5102 
     57 CA         34.6017  -51.0580  -52.7714 C.3       3 UNK         0.0241 
     58 CB         35.5387  -52.2764  -52.9182 C.3       3 UNK        -0.1971 
     59 N          35.2445  -49.8410  -53.2870 N.am      3 UNK        -0.4139 
     60 C          35.5465  -49.5525  -54.5633 C.2       2 UNK         0.5016 
     61 O          35.4009  -50.3279  -55.5103 O.2       2 UNK        -0.5319 
     62 CA         36.0500  -48.1204  -54.8231 C.3       2 UNK         0.0286 
     63 CB         37.1978  -48.1040  -55.8481 C.3       2 UNK        -0.1963 
     64 N          34.9900  -47.2154  -55.2848 N.am      2 UNK        -0.4790 
     65 C          33.8305  -46.9506  -54.6632 C.2       1 UNK         0.5024 
     66 O          33.4660  -47.5187  -53.6354 O.2       1 UNK        -0.4888 
     67 H67        30.1057  -47.4746  -57.5853 H         1 UNK         0.0892 
     68 H68        30.8708  -46.9152  -59.0755 H         1 UNK         0.0892 
     69 H69        31.1880  -48.5459  -58.4745 H         1 UNK         0.0892 
     70 H70        30.9930  -46.3552  -55.9065 H         1 UNK         0.3107 
     71 H71        32.3204  -45.4943  -54.4384 H         1 UNK         0.0773 
     72 H72        34.3886  -44.9371  -56.6297 H         1 UNK         0.0680 
     73 H73        34.4229  -44.2701  -55.0216 H         1 UNK         0.0680 
     74 H74        33.6553  -42.0501  -54.5117 H         1 UNK         0.0650 
     75 H75        32.3650  -41.1639  -55.2765 H         1 UNK         0.0650 
     76 H76        33.1618  -43.6147  -52.6875 H         1 UNK         0.1397 
     77 H77        29.1555  -43.8014  -51.1790 H         1 UNK         0.1363 
     78 H78        29.9788  -41.7515  -54.8596 H         1 UNK         0.1355 
     79 H79        27.7886  -41.4845  -52.4399 H         1 UNK         0.0707 
     80 H80        27.2987  -43.1458  -52.6324 H         1 UNK         0.0707 
     81 H81        27.0334  -44.3579  -54.6670 H         1 UNK         0.1034 
     82 H82        25.7215  -43.5969  -55.5080 H         1 UNK         0.1034 
     83 H83        27.6636  -42.8798  -57.2311 H         1 UNK         0.0482 
     84 H84        29.5779  -43.5563  -58.2645 H         1 UNK         0.3460 
     85 H85        30.7298  -44.5788  -57.4439 H         1 UNK         0.3460 
     86 H86        26.0362  -45.3246  -57.2807 H         1 UNK         0.2989 
     87 H87        24.7036  -45.3473  -59.3049 H         1 UNK         0.0559 
     88 H88        25.1905  -43.9685  -61.3270 H         1 UNK         0.0848 
     89 H89        24.7541  -45.6120  -61.7601 H         1 UNK         0.0848 
     90 H90        26.4413  -45.1015  -61.8176 H         1 UNK         0.0848 
     91 H91        26.5026  -47.2133  -60.5881 H         1 UNK         0.3144 
     92 H92        25.7921  -49.6635  -59.2696 H         1 UNK         0.0727 
     93 H93        28.2951  -50.1357  -59.6237 H         1 UNK         0.0790 
     94 H94        28.6048  -48.4258  -59.3436 H         1 UNK         0.0790 
     95 H95        27.6344  -48.9405  -60.7186 H         1 UNK         0.0790 
     96 H96        27.4142  -48.9279  -56.8891 H         1 UNK         0.3215 
     97 H97        25.6413  -51.1311  -54.8755 H         1 UNK         0.0863 
     98 H98        27.9424  -51.6710  -53.9819 H         1 UNK         0.0808 
     99 H99        28.6193  -51.2974  -55.5692 H         1 UNK         0.0808 
    100 H100       27.5062  -52.6397  -55.3817 H         1 UNK         0.0808 
    101 H101       27.7386  -49.0448  -54.7307 H         1 UNK         0.3118 
    102 H102       26.1044  -46.5033  -54.9928 H         1 UNK         0.0546 
    103 H103       24.2806  -46.3670  -53.3622 H         1 UNK         0.0828 
    104 H104       25.6212  -45.3932  -52.7864 H         1 UNK         0.0828 
    105 H105       25.3072  -46.9755  -52.0753 H         1 UNK         0.0828 
    106 H106       28.2185  -46.4385  -54.3934 H         1 UNK         0.3005 
    107 H107       30.0506  -46.4115  -53.1956 H         1 UNK         0.1257 
    108 H108       30.0539  -47.7738  -50.4480 H         1 UNK         0.0775 
    109 H109       29.5310  -46.1344  -50.6888 H         1 UNK         0.0775 
    110 H110       31.0354  -44.4488  -49.7536 H         1 UNK         0.0840 
    111 H111       32.6706  -44.1746  -50.2856 H         1 UNK         0.0840 
    112 H112       31.1719  -48.8285  -52.3880 H         1 UNK         0.2987 
    113 H113       30.6471  -51.1187  -54.1230 H         1 UNK         0.0785 
    114 H114       31.9815  -51.4923  -56.1575 H         1 UNK         0.0798 
    115 H115       32.1999  -49.7648  -56.3927 H         1 UNK         0.0798 
    116 H116       30.6105  -50.4926  -56.5943 H         1 UNK         0.0798 
    117 H117       32.9181  -49.3097  -53.6515 H         1 UNK         0.3079 
    118 H118       34.4469  -50.8897  -51.7046 H         1 UNK         0.0794 
    119 H119       35.1300  -53.1498  -52.4086 H         1 UNK         0.0786 
    120 H120       36.5180  -52.0789  -52.4824 H         1 UNK         0.0786 
    121 H121       35.6854  -52.5499  -53.9636 H         1 UNK         0.0786 
    122 H122       35.3598  -49.1021  -52.6062 H         1 UNK         0.3032 
    123 H123       36.4401  -47.7192  -53.8852 H         1 UNK         0.1094 
    124 H124       37.6276  -47.1071  -55.9484 H         1 UNK         0.0794 
    125 H125       38.0031  -48.7737  -55.5433 H         1 UNK         0.0794 
    126 H126       36.8626  -48.4257  -56.8352 H         1 UNK         0.0794 
    127 H127       35.1412  -46.7740  -56.1816 H         1 UNK         0.3016 
@<TRIPOS>BOND
     1    1    2 1    
     2    1   67 1    
     3    1   68 1    
     4    1   69 1    
     5    2    3 2    
     6    2    4 am   BACKBONE|DICT|INTERRES
     7    4    5 1    
     8    4   70 1    
     9    5    6 1    
    10    5   65 1    
    11    5   71 1    
    12    6    7 1    
    13    6   72 1    
    14    6   73 1    
    15    7    8 1    
    16    8    9 1    
    17    8   74 1    
    18    8   75 1    
    19    9   10 ar   
    20    9   14 ar   
    21   10   11 ar   
    22   10   76 1    
    23   11   12 ar   
    24   11   48 1    
    25   12   13 ar   
    26   12   77 1    
    27   13   14 ar   
    28   13   15 1    
    29   14   78 1    
    30   15   16 1    
    31   15   79 1    
    32   15   80 1    
    33   16   17 1    
    34   17   18 1    
    35   17   81 1    
    36   17   82 1    
    37   18   19 1    
    38   18   22 1    
    39   18   83 1    
    40   19   20 am   BACKBONE|DICT|INTERRES
    41   19   21 2    
    42   20   84 1    
    43   20   85 1    
    44   22   23 am   BACKBONE|DICT|INTERRES
    45   22   86 1    
    46   23   24 2    
    47   23   25 1    
    48   25   26 1    
    49   25   27 1    
    50   25   87 1    
    51   26   88 1    
    52   26   89 1    
    53   26   90 1    
    54   27   28 am   BACKBONE|DICT|INTERRES
    55   27   91 1    
    56   28   29 2    
    57   28   30 1    
    58   30   31 1    
    59   30   32 1    
    60   30   92 1    
    61   31   93 1    
    62   31   94 1    
    63   31   95 1    
    64   32   33 am   BACKBONE|DICT|INTERRES
    65   32   96 1    
    66   33   34 2    
    67   33   35 1    
    68   35   36 1    
    69   35   37 1    
    70   35   97 1    
    71   36   98 1    
    72   36   99 1    
    73   36  100 1    
    74   37   38 am   BACKBONE|DICT|INTERRES
    75   37  101 1    
    76   38   39 2    
    77   38   40 1    
    78   40   41 1    
    79   40   42 1    
    80   40  102 1    
    81   41  103 1    
    82   41  104 1    
    83   41  105 1    
    84   42   43 am   BACKBONE|DICT|INTERRES
    85   42  106 1    
    86   43   44 2    
    87   43   45 1    
    88   45   46 1    
    89   45   49 1    
    90   45  107 1    
    91   46   47 1    
    92   46  108 1    
    93   46  109 1    
    94   47   48 1    
    95   48  110 1    
    96   48  111 1    
    97   49   50 am   BACKBONE|DICT|INTERRES
    98   49  112 1    
    99   50   51 2    
   100   50   52 1    
   101   52   53 1    
   102   52   54 1    
   103   52  113 1    
   104   53  114 1    
   105   53  115 1    
   106   53  116 1    
   107   54   55 am   BACKBONE|DICT|INTERRES
   108   54  117 1    
   109   55   56 2    
   110   55   57 1    
   111   57   58 1    
   112   57   59 1    
   113   57  118 1    
   114   58  119 1    
   115   58  120 1    
   116   58  121 1    
   117   59   60 am   BACKBONE|DICT|INTERRES
   118   59  122 1    
   119   60   61 2    
   120   60   62 1    
   121   62   63 1    
   122   62   64 1    
   123   62  123 1    
   124   63  124 1    
   125   63  125 1    
   126   63  126 1    
   127   64   65 am   BACKBONE|DICT|INTERRES
   128   64  127 1    
   129   65   66 2    
@<TRIPOS>SUBSTRUCTURE
     1 UNK         1 GROUP             0       ****    0 ROOT    
