@<TRIPOS>MOLECULE
3R134
127   129    1
SMALL
USER_CHARGES


@<TRIPOS>ATOM
      1 CA         29.5643  -45.8951  -51.1691 C.3       0 UNK        -0.1968 
      2 C          30.9439  -45.7945  -51.7992 C.2       0 UNK         0.4852 
      3 O          31.2325  -46.5187  -52.7528 O.2       0 UNK        -0.5359 
      4 N          31.7911  -44.9088  -51.2516 N.am      1 UNK        -0.4300 
      5 CA         33.2043  -44.6981  -51.5977 C.3       1 UNK         0.0863 
      6 C6         33.4239  -44.0979  -53.0138 C.3       11 UNK        -0.0953 
      7 S7         32.8192  -42.3808  -53.1065 S.3       11 UNK        -0.2369 
      8 C8         33.4892  -41.8501  -54.7152 C.3       11 UNK         0.0226 
      9 C9         32.8000  -42.5729  -55.8610 C.ar      11 UNK        -0.0699 
     10 C10        33.4421  -43.6198  -56.5287 C.ar      11 UNK        -0.0804 
     11 C11        32.7702  -44.3452  -57.5183 C.ar      11 UNK        -0.0871 
     12 C12        31.4655  -43.9857  -57.8678 C.ar      11 UNK        -0.1008 
     13 C13        30.8198  -42.9335  -57.2142 C.ar      11 UNK        -0.0735 
     14 C14        31.4951  -42.2241  -56.2181 C.ar      11 UNK        -0.0945 
     15 C15        29.3708  -42.6046  -57.5398 C.3       11 UNK         0.0169 
     16 S16        28.2435  -43.9397  -57.0239 S.3       11 UNK        -0.2669 
     17 C17        28.7025  -44.1491  -55.2642 C.3       11 UNK        -0.0850 
     18 CA         27.6829  -44.9863  -54.4517 C.3       10 UNK         0.0855 
     19 C          26.3612  -44.2038  -54.1848 C.2       10 UNK         0.5543 
     20 N          25.1956  -44.6690  -54.6194 N.am      10 UNK        -0.7343 
     21 O          26.3962  -43.1514  -53.5518 O.2       10 UNK        -0.5027 
     22 N          27.5321  -46.3298  -55.0243 N.am      10 UNK        -0.4495 
     23 C          26.9636  -47.3816  -54.4269 C.2       10 UNK         0.4903 
     24 O          26.6062  -47.3891  -53.2482 O.2       10 UNK        -0.4860 
     25 CA         26.7327  -48.6192  -55.3194 C.3       9 UNK         0.0227 
     26 CB         25.7679  -49.6430  -54.6843 C.3       9 UNK        -0.1964 
     27 N          26.2939  -48.2726  -56.6800 N.am      9 UNK        -0.4231 
     28 C          25.2144  -47.5436  -57.0168 C.2       9 UNK         0.5014 
     29 O          24.4298  -47.0711  -56.1930 O.2       9 UNK        -0.5270 
     30 CA         24.9637  -47.2476  -58.5090 C.3       8 UNK         0.0284 
     31 CB         25.2020  -45.7574  -58.8062 C.3       8 UNK        -0.1977 
     32 N          25.7876  -48.0428  -59.4183 N.am      8 UNK        -0.4342 
     33 C          25.5986  -49.3371  -59.7071 C.2       8 UNK         0.5039 
     34 O          24.6409  -49.9975  -59.3036 O.2       8 UNK        -0.5547 
     35 CA         26.6779  -50.0157  -60.5743 C.3       7 UNK         0.0281 
     36 CB         26.2232  -50.0855  -62.0414 C.3       7 UNK        -0.1963 
     37 N          27.9937  -49.3629  -60.5040 N.am      7 UNK        -0.4444 
     38 C          28.7321  -49.2512  -59.3902 C.2       7 UNK         0.5104 
     39 O          28.3809  -49.7232  -58.3072 O.2       7 UNK        -0.5100 
     40 CA         30.0547  -48.4671  -59.5288 C.3       6 UNK         0.0396 
     41 CB         29.8082  -47.0175  -60.0054 C.3       6 UNK        -0.1801 
     42 N          30.8862  -48.4830  -58.3151 N.am      6 UNK        -0.4747 
     43 C          30.5960  -47.9563  -57.1143 C.2       6 UNK         0.5012 
     44 O          29.5784  -47.3032  -56.8711 O.2       6 UNK        -0.5003 
     45 CA         31.6375  -48.1806  -55.9978 C.3       5 UNK         0.0782 
     46 C46        32.5267  -46.9364  -55.7877 C.3       11 UNK        -0.0868 
     47 S47        33.9358  -46.8299  -56.9462 S.3       11 UNK        -0.2515 
     48 C48        33.4160  -45.5661  -58.1603 C.3       11 UNK         0.0199 
     49 N          30.9887  -48.5529  -54.7409 N.am      5 UNK        -0.4607 
     50 C          30.3913  -49.7253  -54.5093 C.2       4 UNK         0.5031 
     51 O          30.3484  -50.6467  -55.3253 O.2       4 UNK        -0.5119 
     52 CA         29.8158  -49.9150  -53.1020 C.3       4 UNK         0.0263 
     53 CB         28.9552  -51.1872  -52.9632 C.3       4 UNK        -0.1967 
     54 N          30.9412  -49.9650  -52.1781 N.am      4 UNK        -0.4237 
     55 C          30.9160  -49.6868  -50.8737 C.2       3 UNK         0.4908 
     56 O          29.8994  -49.3652  -50.2581 O.2       3 UNK        -0.5102 
     57 CA         32.2571  -49.7767  -50.1224 C.3       3 UNK         0.0241 
     58 CB         32.6745  -51.2426  -49.8919 C.3       3 UNK        -0.1971 
     59 N          33.3419  -48.9926  -50.7311 N.am      3 UNK        -0.4139 
     60 C          33.9481  -49.1425  -51.9183 C.2       2 UNK         0.5016 
     61 O          33.6842  -50.0460  -52.7148 O.2       2 UNK        -0.5319 
     62 CA         34.9889  -48.0641  -52.2880 C.3       2 UNK         0.0286 
     63 CB         35.7034  -48.3641  -53.6191 C.3       2 UNK        -0.1963 
     64 N          34.3728  -46.7358  -52.3705 N.am      2 UNK        -0.4790 
     65 C          34.0017  -45.9884  -51.3224 C.2       1 UNK         0.5024 
     66 O          34.2281  -46.3104  -50.1538 O.2       1 UNK        -0.4888 
     67 H67        29.0607  -44.9289  -51.1806 H         1 UNK         0.0892 
     68 H68        28.9455  -46.6119  -51.7090 H         1 UNK         0.0892 
     69 H69        29.6427  -46.2360  -50.1370 H         1 UNK         0.0892 
     70 H70        31.4705  -44.3637  -50.4636 H         1 UNK         0.3107 
     71 H71        33.5857  -43.9732  -50.8763 H         1 UNK         0.0773 
     72 H72        34.4856  -44.0870  -53.2678 H         1 UNK         0.0680 
     73 H73        32.9208  -44.6885  -53.7801 H         1 UNK         0.0680 
     74 H74        33.3416  -40.7747  -54.8232 H         1 UNK         0.0650 
     75 H75        34.5672  -42.0171  -54.7371 H         1 UNK         0.0650 
     76 H76        34.4442  -43.9081  -56.2419 H         1 UNK         0.1397 
     77 H77        30.9269  -44.5526  -58.6141 H         1 UNK         0.1363 
     78 H78        30.9933  -41.4254  -55.6890 H         1 UNK         0.1355 
     79 H79        29.2671  -42.4456  -58.6139 H         1 UNK         0.0707 
     80 H80        29.0641  -41.6747  -57.0583 H         1 UNK         0.0707 
     81 H81        28.8482  -43.1685  -54.8070 H         1 UNK         0.1034 
     82 H82        29.6777  -44.6389  -55.2257 H         1 UNK         0.1034 
     83 H83        28.1216  -45.1306  -53.4653 H         1 UNK         0.0482 
     84 H84        25.1328  -45.5449  -55.1272 H         1 UNK         0.3460 
     85 H85        24.3576  -44.1450  -54.4268 H         1 UNK         0.3460 
     86 H86        27.8829  -46.4433  -55.9693 H         1 UNK         0.2989 
     87 H87        27.7028  -49.1026  -55.4325 H         1 UNK         0.0559 
     88 H88        25.6752  -50.5355  -55.3029 H         1 UNK         0.0848 
     89 H89        24.7702  -49.2256  -54.5452 H         1 UNK         0.0848 
     90 H90        26.1207  -49.9631  -53.7036 H         1 UNK         0.0848 
     91 H91        26.9020  -48.6142  -57.4181 H         1 UNK         0.3144 
     92 H92        23.9138  -47.4719  -58.7093 H         1 UNK         0.0727 
     93 H93        24.9309  -45.5084  -59.8323 H         1 UNK         0.0790 
     94 H94        26.2456  -45.4793  -58.6573 H         1 UNK         0.0790 
     95 H95        24.6010  -45.1238  -58.1521 H         1 UNK         0.0790 
     96 H96        26.5960  -47.5855  -59.8129 H         1 UNK         0.3215 
     97 H97        26.7944  -51.0361  -60.2024 H         1 UNK         0.0863 
     98 H98        26.9328  -50.6441  -62.6521 H         1 UNK         0.0808 
     99 H99        26.1102  -49.0923  -62.4781 H         1 UNK         0.0808 
    100 H100       25.2595  -50.5898  -62.1270 H         1 UNK         0.0808 
    101 H101       28.3514  -48.9749  -61.3655 H         1 UNK         0.3118 
    102 H102       30.6384  -48.9777  -60.2961 H         1 UNK         0.0546 
    103 H103       29.1879  -46.4537  -59.3076 H         1 UNK         0.0828 
    104 H104       29.3079  -46.9913  -60.9735 H         1 UNK         0.0828 
    105 H105       30.7468  -46.4792  -60.1275 H         1 UNK         0.0828 
    106 H106       31.7412  -49.0151  -58.3983 H         1 UNK         0.3005 
    107 H107       32.2762  -49.0216  -56.2775 H         1 UNK         0.1257 
    108 H108       31.9276  -46.0256  -55.7684 H         1 UNK         0.0775 
    109 H109       32.9810  -46.9866  -54.7993 H         1 UNK         0.0775 
    110 H110       34.2861  -45.2486  -58.7362 H         1 UNK         0.0840 
    111 H111       32.7347  -46.0351  -58.8705 H         1 UNK         0.0840 
    112 H112       30.9964  -47.8428  -54.0094 H         1 UNK         0.2987 
    113 H113       29.1985  -49.0428  -52.8755 H         1 UNK         0.0785 
    114 H114       28.4706  -51.2341  -51.9880 H         1 UNK         0.0798 
    115 H115       29.5534  -52.0910  -53.0843 H         1 UNK         0.0798 
    116 H116       28.1702  -51.2146  -53.7189 H         1 UNK         0.0798 
    117 H117       31.8529  -50.1611  -52.5914 H         1 UNK         0.3079 
    118 H118       32.0921  -49.3294  -49.1407 H         1 UNK         0.0794 
    119 H119       31.8919  -51.7905  -49.3655 H         1 UNK         0.0786 
    120 H120       33.5779  -51.3056  -49.2853 H         1 UNK         0.0786 
    121 H121       32.8631  -51.7693  -50.8278 H         1 UNK         0.0786 
    122 H122       33.6116  -48.1639  -50.2081 H         1 UNK         0.3032 
    123 H123       35.7442  -48.0570  -51.4985 H         1 UNK         0.1094 
    124 H124       35.0042  -48.4114  -54.4544 H         1 UNK         0.0794 
    125 H125       36.4511  -47.6051  -53.8500 H         1 UNK         0.0794 
    126 H126       36.2201  -49.3237  -53.5751 H         1 UNK         0.0794 
    127 H127       34.0940  -46.4287  -53.2903 H         1 UNK         0.3016 
@<TRIPOS>BOND
     1    1    2 1    
     2    1   67 1    
     3    1   68 1    
     4    1   69 1    
     5    2    3 2    
     6    2    4 am   BACKBONE|DICT|INTERRES
     7    4    5 1    
     8    4   70 1    
     9    5    6 1    
    10    5   65 1    
    11    5   71 1    
    12    6    7 1    
    13    6   72 1    
    14    6   73 1    
    15    7    8 1    
    16    8    9 1    
    17    8   74 1    
    18    8   75 1    
    19    9   10 ar   
    20    9   14 ar   
    21   10   11 ar   
    22   10   76 1    
    23   11   12 ar   
    24   11   48 1    
    25   12   13 ar   
    26   12   77 1    
    27   13   14 ar   
    28   13   15 1    
    29   14   78 1    
    30   15   16 1    
    31   15   79 1    
    32   15   80 1    
    33   16   17 1    
    34   17   18 1    
    35   17   81 1    
    36   17   82 1    
    37   18   19 1    
    38   18   22 1    
    39   18   83 1    
    40   19   20 am   BACKBONE|DICT|INTERRES
    41   19   21 2    
    42   20   84 1    
    43   20   85 1    
    44   22   23 am   BACKBONE|DICT|INTERRES
    45   22   86 1    
    46   23   24 2    
    47   23   25 1    
    48   25   26 1    
    49   25   27 1    
    50   25   87 1    
    51   26   88 1    
    52   26   89 1    
    53   26   90 1    
    54   27   28 am   BACKBONE|DICT|INTERRES
    55   27   91 1    
    56   28   29 2    
    57   28   30 1    
    58   30   31 1    
    59   30   32 1    
    60   30   92 1    
    61   31   93 1    
    62   31   94 1    
    63   31   95 1    
    64   32   33 am   BACKBONE|DICT|INTERRES
    65   32   96 1    
    66   33   34 2    
    67   33   35 1    
    68   35   36 1    
    69   35   37 1    
    70   35   97 1    
    71   36   98 1    
    72   36   99 1    
    73   36  100 1    
    74   37   38 am   BACKBONE|DICT|INTERRES
    75   37  101 1    
    76   38   39 2    
    77   38   40 1    
    78   40   41 1    
    79   40   42 1    
    80   40  102 1    
    81   41  103 1    
    82   41  104 1    
    83   41  105 1    
    84   42   43 am   BACKBONE|DICT|INTERRES
    85   42  106 1    
    86   43   44 2    
    87   43   45 1    
    88   45   46 1    
    89   45   49 1    
    90   45  107 1    
    91   46   47 1    
    92   46  108 1    
    93   46  109 1    
    94   47   48 1    
    95   48  110 1    
    96   48  111 1    
    97   49   50 am   BACKBONE|DICT|INTERRES
    98   49  112 1    
    99   50   51 2    
   100   50   52 1    
   101   52   53 1    
   102   52   54 1    
   103   52  113 1    
   104   53  114 1    
   105   53  115 1    
   106   53  116 1    
   107   54   55 am   BACKBONE|DICT|INTERRES
   108   54  117 1    
   109   55   56 2    
   110   55   57 1    
   111   57   58 1    
   112   57   59 1    
   113   57  118 1    
   114   58  119 1    
   115   58  120 1    
   116   58  121 1    
   117   59   60 am   BACKBONE|DICT|INTERRES
   118   59  122 1    
   119   60   61 2    
   120   60   62 1    
   121   62   63 1    
   122   62   64 1    
   123   62  123 1    
   124   63  124 1    
   125   63  125 1    
   126   63  126 1    
   127   64   65 am   BACKBONE|DICT|INTERRES
   128   64  127 1    
   129   65   66 2    
@<TRIPOS>SUBSTRUCTURE
     1 UNK         1 GROUP             0       ****    0 ROOT    
