@<TRIPOS>MOLECULE
3R134
127   129    1
SMALL
USER_CHARGES


@<TRIPOS>ATOM
      1 CA         37.5838  -49.2408  -53.3607 C.3       0 UNK        -0.1968 
      2 C          36.3461  -48.4482  -53.7511 C.2       0 UNK         0.4852 
      3 O          35.3870  -49.0256  -54.2652 O.2       0 UNK        -0.5359 
      4 N          36.3438  -47.1313  -53.4985 N.am      1 UNK        -0.4300 
      5 CA         35.2339  -46.2283  -53.8312 C.3       1 UNK         0.0863 
      6 C6         35.6243  -44.7357  -53.6724 C.3       11 UNK        -0.0953 
      7 S7         34.9622  -43.7070  -55.0270 S.3       11 UNK        -0.2369 
      8 C8         34.0186  -42.4171  -54.1532 C.3       11 UNK         0.0226 
      9 C9         32.5156  -42.5802  -54.3341 C.ar      11 UNK        -0.0699 
     10 C10        31.7064  -42.9751  -53.2632 C.ar      11 UNK        -0.0804 
     11 C11        30.3166  -43.0507  -53.4138 C.ar      11 UNK        -0.0871 
     12 C12        29.7425  -42.7334  -54.6478 C.ar      11 UNK        -0.1008 
     13 C13        30.5419  -42.3670  -55.7332 C.ar      11 UNK        -0.0735 
     14 C14        31.9275  -42.2858  -55.5691 C.ar      11 UNK        -0.0945 
     15 C15        29.8963  -42.0486  -57.0724 C.3       11 UNK         0.0169 
     16 S16        29.2338  -43.5536  -57.8506 S.3       11 UNK        -0.2669 
     17 C17        28.2766  -42.8370  -59.2300 C.3       11 UNK        -0.0850 
     18 CA         26.8440  -42.3787  -58.8200 C.3       10 UNK         0.0855 
     19 C          26.0870  -41.6754  -59.9887 C.2       10 UNK         0.5543 
     20 N          24.7689  -41.7963  -60.0898 N.am      10 UNK        -0.7343 
     21 O          26.6963  -40.9805  -60.7985 O.2       10 UNK        -0.5027 
     22 N          26.0703  -43.4185  -58.1131 N.am      10 UNK        -0.4495 
     23 C          25.6896  -44.6003  -58.6127 C.2       10 UNK         0.4903 
     24 O          25.9060  -44.9711  -59.7690 O.2       10 UNK        -0.4860 
     25 CA         24.8802  -45.4970  -57.6600 C.3       9 UNK         0.0227 
     26 CB         23.3817  -45.1629  -57.7511 C.3       9 UNK        -0.1964 
     27 N          25.0731  -46.9157  -57.9637 N.am      9 UNK        -0.4231 
     28 C          26.1892  -47.6027  -57.6906 C.2       9 UNK         0.5014 
     29 O          27.1546  -47.1334  -57.0878 O.2       9 UNK        -0.5270 
     30 CA         26.2382  -49.0394  -58.2222 C.3       8 UNK         0.0284 
     31 CB         26.7733  -49.0642  -59.6666 C.3       8 UNK        -0.1977 
     32 N          27.0774  -49.8828  -57.3699 N.am      8 UNK        -0.4342 
     33 C          26.9288  -51.2089  -57.2487 C.2       8 UNK         0.5039 
     34 O          26.0503  -51.8507  -57.8282 O.2       8 UNK        -0.5547 
     35 CA         27.9173  -51.9657  -56.3458 C.3       7 UNK         0.0281 
     36 CB         29.2369  -52.2354  -57.0872 C.3       7 UNK        -0.1963 
     37 N          28.1876  -51.2891  -55.0771 N.am      7 UNK        -0.4444 
     38 C          27.3087  -51.1744  -54.0717 C.2       7 UNK         0.5104 
     39 O          26.1672  -51.6360  -54.1012 O.2       7 UNK        -0.5100 
     40 CA         27.7811  -50.4218  -52.8146 C.3       6 UNK         0.0396 
     41 CB         28.5254  -51.3663  -51.8578 C.3       6 UNK        -0.1801 
     42 N          28.6310  -49.2733  -53.1314 N.am      6 UNK        -0.4747 
     43 C          28.1933  -48.1559  -53.7308 C.2       6 UNK         0.5012 
     44 O          27.0087  -47.9498  -53.9975 O.2       6 UNK        -0.5003 
     45 CA         29.2604  -47.1020  -54.0961 C.3       5 UNK         0.0782 
     46 C46        29.5819  -46.2029  -52.8734 C.3       11 UNK        -0.0868 
     47 S47        28.3561  -44.8799  -52.6162 S.3       11 UNK        -0.2515 
     48 C48        29.4313  -43.4536  -52.2396 C.3       11 UNK         0.0199 
     49 N          30.4819  -47.7040  -54.6476 N.am      5 UNK        -0.4607 
     50 C          30.5596  -48.4823  -55.7374 C.2       4 UNK         0.5031 
     51 O          29.6021  -48.7727  -56.4503 O.2       4 UNK        -0.5119 
     52 CA         31.9314  -49.1086  -56.0475 C.3       4 UNK         0.0263 
     53 CB         32.8593  -48.1014  -56.7454 C.3       4 UNK        -0.1967 
     54 N          32.5789  -49.6516  -54.8498 N.am      4 UNK        -0.4237 
     55 C          32.0648  -50.6372  -54.0977 C.2       3 UNK         0.4908 
     56 O          31.0433  -51.2581  -54.3887 O.2       3 UNK        -0.5102 
     57 CA         32.7668  -50.9389  -52.7654 C.3       3 UNK         0.0241 
     58 CB         33.9601  -51.8875  -52.9632 C.3       3 UNK        -0.1971 
     59 N          33.1960  -49.7106  -52.0927 N.am      3 UNK        -0.4139 
     60 C          32.3525  -48.8307  -51.5325 C.2       2 UNK         0.5016 
     61 O          31.1353  -49.0012  -51.4653 O.2       2 UNK        -0.5319 
     62 CA         32.9618  -47.5249  -50.9908 C.3       2 UNK         0.0286 
     63 CB         33.4322  -47.7085  -49.5396 C.3       2 UNK        -0.1963 
     64 N          34.0742  -47.0297  -51.8085 N.am      2 UNK        -0.4790 
     65 C          33.9409  -46.5723  -53.0633 C.2       1 UNK         0.5024 
     66 O          32.8574  -46.4771  -53.6331 O.2       1 UNK        -0.4888 
     67 H67        38.0213  -49.7071  -54.2429 H         1 UNK         0.0892 
     68 H68        38.3429  -48.6111  -52.8972 H         1 UNK         0.0892 
     69 H69        37.3178  -50.0282  -52.6561 H         1 UNK         0.0892 
     70 H70        37.1545  -46.7045  -53.0726 H         1 UNK         0.3107 
     71 H71        35.0212  -46.4162  -54.8861 H         1 UNK         0.0773 
     72 H72        36.7084  -44.6200  -53.7176 H         1 UNK         0.0680 
     73 H73        35.3351  -44.3413  -52.6966 H         1 UNK         0.0680 
     74 H74        34.2832  -42.3903  -53.0957 H         1 UNK         0.0650 
     75 H75        34.3155  -41.4473  -54.5551 H         1 UNK         0.0650 
     76 H76        32.1583  -43.2075  -52.3086 H         1 UNK         0.1397 
     77 H77        28.6693  -42.7905  -54.7709 H         1 UNK         0.1363 
     78 H78        32.5523  -41.9869  -56.3998 H         1 UNK         0.1355 
     79 H79        30.6114  -41.5775  -57.7487 H         1 UNK         0.0707 
     80 H80        29.0920  -41.3285  -56.9169 H         1 UNK         0.0707 
     81 H81        28.2199  -43.5817  -60.0255 H         1 UNK         0.1034 
     82 H82        28.8449  -42.0030  -59.6462 H         1 UNK         0.1034 
     83 H83        26.9697  -41.5861  -58.0822 H         1 UNK         0.0482 
     84 H84        24.2854  -41.3296  -60.8410 H         1 UNK         0.3460 
     85 H85        24.2564  -42.3563  -59.4282 H         1 UNK         0.3460 
     86 H86        25.8228  -43.1966  -57.1596 H         1 UNK         0.2989 
     87 H87        25.2157  -45.3168  -56.6360 H         1 UNK         0.0559 
     88 H88        22.9931  -45.3166  -58.7588 H         1 UNK         0.0848 
     89 H89        23.1948  -44.1215  -57.4858 H         1 UNK         0.0848 
     90 H90        22.7951  -45.7772  -57.0675 H         1 UNK         0.0848 
     91 H91        24.3509  -47.3610  -58.5112 H         1 UNK         0.3144 
     92 H92        25.2183  -49.4306  -58.2127 H         1 UNK         0.0727 
     93 H93        27.8043  -48.7110  -59.7148 H         1 UNK         0.0790 
     94 H94        26.1781  -48.4235  -60.3187 H         1 UNK         0.0790 
     95 H95        26.7433  -50.0698  -60.0864 H         1 UNK         0.0790 
     96 H96        27.8324  -49.4006  -56.8802 H         1 UNK         0.3215 
     97 H97        27.4681  -52.9333  -56.1108 H         1 UNK         0.0863 
     98 H98        29.7501  -51.3108  -57.3507 H         1 UNK         0.0808 
     99 H99        29.0580  -52.7832  -58.0132 H         1 UNK         0.0808 
    100 H100       29.9172  -52.8347  -56.4818 H         1 UNK         0.0808 
    101 H101       29.1274  -50.9296  -54.9404 H         1 UNK         0.3118 
    102 H102       26.8947  -50.0504  -52.2960 H         1 UNK         0.0546 
    103 H103       28.8236  -50.8514  -50.9443 H         1 UNK         0.0828 
    104 H104       29.4235  -51.7822  -52.3143 H         1 UNK         0.0828 
    105 H105       27.8907  -52.2042  -51.5665 H         1 UNK         0.0828 
    106 H106       29.6112  -49.3378  -52.8757 H         1 UNK         0.3005 
    107 H107       28.8431  -46.4823  -54.8940 H         1 UNK         0.1257 
    108 H108       30.5497  -45.7264  -53.0150 H         1 UNK         0.0775 
    109 H109       29.6773  -46.7835  -51.9542 H         1 UNK         0.0775 
    110 H110       28.8045  -42.6042  -51.9652 H         1 UNK         0.0840 
    111 H111       30.0320  -43.6883  -51.3594 H         1 UNK         0.0840 
    112 H112       31.3463  -47.4662  -54.1687 H         1 UNK         0.2987 
    113 H113       31.7681  -49.9429  -56.7326 H         1 UNK         0.0785 
    114 H114       33.8286  -48.5451  -56.9735 H         1 UNK         0.0798 
    115 H115       32.4245  -47.7657  -57.6877 H         1 UNK         0.0798 
    116 H116       33.0317  -47.2142  -56.1373 H         1 UNK         0.0798 
    117 H117       33.4669  -49.2413  -54.5723 H         1 UNK         0.3079 
    118 H118       32.0446  -51.4419  -52.1185 H         1 UNK         0.0794 
    119 H119       34.4352  -52.1307  -52.0128 H         1 UNK         0.0786 
    120 H120       34.7195  -51.4626  -53.6192 H         1 UNK         0.0786 
    121 H121       33.6353  -52.8271  -53.4121 H         1 UNK         0.0786 
    122 H122       34.1749  -49.4719  -52.1565 H         1 UNK         0.3032 
    123 H123       32.1727  -46.7693  -51.0010 H         1 UNK         0.1094 
    124 H124       32.6147  -48.0583  -48.9073 H         1 UNK         0.0794 
    125 H125       34.2388  -48.4387  -49.4630 H         1 UNK         0.0794 
    126 H126       33.7871  -46.7688  -49.1158 H         1 UNK         0.0794 
    127 H127       35.0004  -47.0815  -51.4090 H         1 UNK         0.3016 
@<TRIPOS>BOND
     1    1    2 1    
     2    1   67 1    
     3    1   68 1    
     4    1   69 1    
     5    2    3 2    
     6    2    4 am   BACKBONE|DICT|INTERRES
     7    4    5 1    
     8    4   70 1    
     9    5    6 1    
    10    5   65 1    
    11    5   71 1    
    12    6    7 1    
    13    6   72 1    
    14    6   73 1    
    15    7    8 1    
    16    8    9 1    
    17    8   74 1    
    18    8   75 1    
    19    9   10 ar   
    20    9   14 ar   
    21   10   11 ar   
    22   10   76 1    
    23   11   12 ar   
    24   11   48 1    
    25   12   13 ar   
    26   12   77 1    
    27   13   14 ar   
    28   13   15 1    
    29   14   78 1    
    30   15   16 1    
    31   15   79 1    
    32   15   80 1    
    33   16   17 1    
    34   17   18 1    
    35   17   81 1    
    36   17   82 1    
    37   18   19 1    
    38   18   22 1    
    39   18   83 1    
    40   19   20 am   BACKBONE|DICT|INTERRES
    41   19   21 2    
    42   20   84 1    
    43   20   85 1    
    44   22   23 am   BACKBONE|DICT|INTERRES
    45   22   86 1    
    46   23   24 2    
    47   23   25 1    
    48   25   26 1    
    49   25   27 1    
    50   25   87 1    
    51   26   88 1    
    52   26   89 1    
    53   26   90 1    
    54   27   28 am   BACKBONE|DICT|INTERRES
    55   27   91 1    
    56   28   29 2    
    57   28   30 1    
    58   30   31 1    
    59   30   32 1    
    60   30   92 1    
    61   31   93 1    
    62   31   94 1    
    63   31   95 1    
    64   32   33 am   BACKBONE|DICT|INTERRES
    65   32   96 1    
    66   33   34 2    
    67   33   35 1    
    68   35   36 1    
    69   35   37 1    
    70   35   97 1    
    71   36   98 1    
    72   36   99 1    
    73   36  100 1    
    74   37   38 am   BACKBONE|DICT|INTERRES
    75   37  101 1    
    76   38   39 2    
    77   38   40 1    
    78   40   41 1    
    79   40   42 1    
    80   40  102 1    
    81   41  103 1    
    82   41  104 1    
    83   41  105 1    
    84   42   43 am   BACKBONE|DICT|INTERRES
    85   42  106 1    
    86   43   44 2    
    87   43   45 1    
    88   45   46 1    
    89   45   49 1    
    90   45  107 1    
    91   46   47 1    
    92   46  108 1    
    93   46  109 1    
    94   47   48 1    
    95   48  110 1    
    96   48  111 1    
    97   49   50 am   BACKBONE|DICT|INTERRES
    98   49  112 1    
    99   50   51 2    
   100   50   52 1    
   101   52   53 1    
   102   52   54 1    
   103   52  113 1    
   104   53  114 1    
   105   53  115 1    
   106   53  116 1    
   107   54   55 am   BACKBONE|DICT|INTERRES
   108   54  117 1    
   109   55   56 2    
   110   55   57 1    
   111   57   58 1    
   112   57   59 1    
   113   57  118 1    
   114   58  119 1    
   115   58  120 1    
   116   58  121 1    
   117   59   60 am   BACKBONE|DICT|INTERRES
   118   59  122 1    
   119   60   61 2    
   120   60   62 1    
   121   62   63 1    
   122   62   64 1    
   123   62  123 1    
   124   63  124 1    
   125   63  125 1    
   126   63  126 1    
   127   64   65 am   BACKBONE|DICT|INTERRES
   128   64  127 1    
   129   65   66 2    
@<TRIPOS>SUBSTRUCTURE
     1 UNK         1 GROUP             0       ****    0 ROOT    
