@<TRIPOS>MOLECULE
3R134
127   129    1
SMALL
USER_CHARGES


@<TRIPOS>ATOM
      1 CA         30.4148  -45.1265  -53.2667 C.3       0 UNK        -0.1968 
      2 C          29.9600  -44.6339  -51.8970 C.2       0 UNK         0.4852 
      3 O          28.7847  -44.3066  -51.7426 O.2       0 UNK        -0.5359 
      4 N          30.8193  -44.5492  -50.8711 N.am      1 UNK        -0.4300 
      5 CA         32.2234  -44.9704  -50.7752 C.3       1 UNK         0.0863 
      6 C6         33.2037  -44.3135  -51.7891 C.3       11 UNK        -0.0953 
      7 S7         33.1303  -42.4925  -51.6943 S.3       11 UNK        -0.2369 
      8 C8         34.0611  -41.9915  -53.1758 C.3       11 UNK         0.0226 
      9 C9         33.3561  -42.3876  -54.4652 C.ar      11 UNK        -0.0699 
     10 C10        33.9344  -43.3302  -55.3204 C.ar      11 UNK        -0.0804 
     11 C11        33.2966  -43.7035  -56.5074 C.ar      11 UNK        -0.0871 
     12 C12        32.0750  -43.1071  -56.8416 C.ar      11 UNK        -0.1008 
     13 C13        31.4684  -42.1935  -55.9761 C.ar      11 UNK        -0.0735 
     14 C14        32.1226  -41.8199  -54.7993 C.ar      11 UNK        -0.0945 
     15 C15        30.0836  -41.6560  -56.2931 C.3       11 UNK         0.0169 
     16 S16        28.8141  -42.6722  -55.4718 S.3       11 UNK        -0.2669 
     17 C17        27.3813  -42.4505  -56.5823 C.3       11 UNK        -0.0850 
     18 CA         27.0686  -43.7026  -57.4483 C.3       10 UNK         0.0855 
     19 C          28.1601  -44.0032  -58.5136 C.2       10 UNK         0.5543 
     20 N          28.6965  -45.2144  -58.5958 N.am      10 UNK        -0.7343 
     21 O          28.5063  -43.1269  -59.3016 O.2       10 UNK        -0.5027 
     22 N          26.6795  -44.8715  -56.6422 N.am      10 UNK        -0.4495 
     23 C          25.4427  -45.1188  -56.1991 C.2       10 UNK         0.4903 
     24 O          24.4903  -44.3512  -56.3519 O.2       10 UNK        -0.4860 
     25 CA         25.2454  -46.4715  -55.4896 C.3       9 UNK         0.0227 
     26 CB         23.7967  -46.7092  -55.0143 C.3       9 UNK        -0.1964 
     27 N          25.7206  -47.5918  -56.3099 N.am      9 UNK        -0.4231 
     28 C          25.2918  -47.9743  -57.5230 C.2       9 UNK         0.5014 
     29 O          24.3508  -47.4514  -58.1213 O.2       9 UNK        -0.5270 
     30 CA         26.0505  -49.1308  -58.2040 C.3       8 UNK         0.0284 
     31 CB         26.9959  -48.5835  -59.2859 C.3       8 UNK        -0.1977 
     32 N          26.8232  -49.9570  -57.2716 N.am      8 UNK        -0.4342 
     33 C          26.2936  -50.8430  -56.4162 C.2       8 UNK         0.5039 
     34 O          25.0960  -51.1273  -56.3768 O.2       8 UNK        -0.5547 
     35 CA         27.2588  -51.4896  -55.4057 C.3       7 UNK         0.0281 
     36 CB         28.0310  -52.6526  -56.0481 C.3       7 UNK        -0.1963 
     37 N          28.1975  -50.5208  -54.8292 N.am      7 UNK        -0.4444 
     38 C          27.8324  -49.4846  -54.0592 C.2       7 UNK         0.5104 
     39 O          26.6760  -49.2691  -53.6994 O.2       7 UNK        -0.5100 
     40 CA         28.9314  -48.4929  -53.6554 C.3       6 UNK         0.0396 
     41 CB         29.6301  -48.9543  -52.3696 C.3       6 UNK        -0.1801 
     42 N          29.9138  -48.2895  -54.7223 N.am      6 UNK        -0.4747 
     43 C          29.6707  -47.5980  -55.8460 C.2       6 UNK         0.5012 
     44 O          28.6132  -47.0098  -56.0810 O.2       6 UNK        -0.5003 
     45 CA         30.7845  -47.5727  -56.9065 C.3       5 UNK         0.0782 
     46 C46        31.7989  -46.4528  -56.5964 C.3       11 UNK        -0.0868 
     47 S47        32.7561  -45.9906  -58.0766 S.3       11 UNK        -0.2515 
     48 C48        33.9340  -44.7666  -57.4012 C.3       11 UNK         0.0199 
     49 N          31.4245  -48.8781  -57.0656 N.am      5 UNK        -0.4607 
     50 C          30.7973  -49.9752  -57.5101 C.2       4 UNK         0.5031 
     51 O          29.6211  -49.9900  -57.8706 O.2       4 UNK        -0.5119 
     52 CA         31.5978  -51.2871  -57.5071 C.3       4 UNK         0.0263 
     53 CB         32.2974  -51.4895  -58.8600 C.3       4 UNK        -0.1967 
     54 N          32.5854  -51.3707  -56.4273 N.am      4 UNK        -0.4237 
     55 C          32.3132  -51.2988  -55.1162 C.2       3 UNK         0.4908 
     56 O          31.1735  -51.1593  -54.6640 O.2       3 UNK        -0.5102 
     57 CA         33.5096  -51.4152  -54.1506 C.3       3 UNK         0.0241 
     58 CB         34.8835  -51.1676  -54.8182 C.3       3 UNK        -0.1971 
     59 N          33.3708  -50.5712  -52.9584 N.am      3 UNK        -0.4139 
     60 C          33.2621  -49.2353  -52.9113 C.2       2 UNK         0.5016 
     61 O          33.1743  -48.5028  -53.9009 O.2       2 UNK        -0.5319 
     62 CA         33.2766  -48.6246  -51.5025 C.3       2 UNK         0.0286 
     63 CB         34.6262  -48.8698  -50.7992 C.3       2 UNK        -0.1963 
     64 N          33.0324  -47.1818  -51.5552 N.am      2 UNK        -0.4790 
     65 C          32.3111  -46.5047  -50.6530 C.2       1 UNK         0.5024 
     66 O          31.7284  -47.0486  -49.7128 O.2       1 UNK        -0.4888 
     67 H67        31.0251  -46.0248  -53.2047 H         1 UNK         0.0892 
     68 H68        29.5473  -45.3580  -53.8834 H         1 UNK         0.0892 
     69 H69        30.9740  -44.3476  -53.7832 H         1 UNK         0.0892 
     70 H70        30.4433  -44.2220  -49.9926 H         1 UNK         0.3107 
     71 H71        32.5402  -44.6157  -49.7928 H         1 UNK         0.0773 
     72 H72        34.2303  -44.6083  -51.5638 H         1 UNK         0.0680 
     73 H73        33.0157  -44.6379  -52.8110 H         1 UNK         0.0680 
     74 H74        35.0636  -42.4193  -53.1275 H         1 UNK         0.0650 
     75 H75        34.1883  -40.9083  -53.1602 H         1 UNK         0.0650 
     76 H76        34.8810  -43.7812  -55.0554 H         1 UNK         0.1397 
     77 H77        31.5659  -43.3961  -57.7513 H         1 UNK         0.1363 
     78 H78        31.6572  -41.1128  -54.1261 H         1 UNK         0.1355 
     79 H79        29.9902  -40.6198  -55.9651 H         1 UNK         0.0707 
     80 H80        29.9276  -41.6559  -57.3728 H         1 UNK         0.0707 
     81 H81        26.5143  -42.2114  -55.9650 H         1 UNK         0.1034 
     82 H82        27.5306  -41.5743  -57.2157 H         1 UNK         0.1034 
     83 H83        26.2007  -43.4445  -58.0583 H         1 UNK         0.0482 
     84 H84        29.3874  -45.3867  -59.3081 H         1 UNK         0.3460 
     85 H85        28.4356  -45.9401  -57.9474 H         1 UNK         0.3460 
     86 H86        27.4130  -45.5436  -56.4385 H         1 UNK         0.2989 
     87 H87        25.8827  -46.4513  -54.6041 H         1 UNK         0.0559 
     88 H88        23.0904  -46.7148  -55.8451 H         1 UNK         0.0848 
     89 H89        23.4800  -45.9261  -54.3246 H         1 UNK         0.0848 
     90 H90        23.7053  -47.6603  -54.4895 H         1 UNK         0.0848 
     91 H91        26.5291  -48.0734  -55.9403 H         1 UNK         0.3144 
     92 H92        25.3076  -49.7662  -58.6906 H         1 UNK         0.0727 
     93 H93        27.7880  -47.9713  -58.8550 H         1 UNK         0.0790 
     94 H94        26.4569  -47.9644  -60.0044 H         1 UNK         0.0790 
     95 H95        27.4681  -49.3921  -59.8443 H         1 UNK         0.0790 
     96 H96        27.8363  -49.8563  -57.3055 H         1 UNK         0.3215 
     97 H97        26.6604  -51.8932  -54.5859 H         1 UNK         0.0863 
     98 H98        28.7333  -53.1027  -55.3461 H         1 UNK         0.0808 
     99 H99        28.5902  -52.3317  -56.9260 H         1 UNK         0.0808 
    100 H100       27.3465  -53.4376  -56.3721 H         1 UNK         0.0808 
    101 H101       29.1853  -50.6509  -55.0231 H         1 UNK         0.3118 
    102 H102       28.4487  -47.5355  -53.4473 H         1 UNK         0.0546 
    103 H103       30.3362  -48.2049  -52.0195 H         1 UNK         0.0828 
    104 H104       30.1682  -49.8920  -52.5103 H         1 UNK         0.0828 
    105 H105       28.9073  -49.1109  -51.5677 H         1 UNK         0.0828 
    106 H106       30.8033  -48.7649  -54.6267 H         1 UNK         0.3005 
    107 H107       30.2974  -47.3433  -57.8559 H         1 UNK         0.1257 
    108 H108       31.2748  -45.5628  -56.2457 H         1 UNK         0.0775 
    109 H109       32.4797  -46.7421  -55.7942 H         1 UNK         0.0775 
    110 H110       34.7034  -45.3115  -56.8519 H         1 UNK         0.0840 
    111 H111       34.4407  -44.2714  -58.2304 H         1 UNK         0.0840 
    112 H112       32.3878  -48.9480  -56.7717 H         1 UNK         0.2987 
    113 H113       30.8898  -52.1048  -57.3642 H         1 UNK         0.0785 
    114 H114       33.0438  -50.7168  -59.0496 H         1 UNK         0.0798 
    115 H115       31.5777  -51.4551  -59.6794 H         1 UNK         0.0798 
    116 H116       32.7948  -52.4584  -58.9100 H         1 UNK         0.0798 
    117 H117       33.5489  -51.4884  -56.7055 H         1 UNK         0.3079 
    118 H118       33.4990  -52.4455  -53.7923 H         1 UNK         0.0794 
    119 H119       34.9403  -50.1818  -55.2821 H         1 UNK         0.0786 
    120 H120       35.1007  -51.9134  -55.5837 H         1 UNK         0.0786 
    121 H121       35.6894  -51.2306  -54.0866 H         1 UNK         0.0786 
    122 H122       33.3850  -51.0731  -52.0817 H         1 UNK         0.3032 
    123 H123       32.4839  -49.1182  -50.9351 H         1 UNK         0.1094 
    124 H124       34.6325  -48.4421  -49.7963 H         1 UNK         0.0794 
    125 H125       34.8375  -49.9341  -50.6909 H         1 UNK         0.0794 
    126 H126       35.4540  -48.4271  -51.3548 H         1 UNK         0.0794 
    127 H127       33.4252  -46.7104  -52.3594 H         1 UNK         0.3016 
@<TRIPOS>BOND
     1    1    2 1    
     2    1   67 1    
     3    1   68 1    
     4    1   69 1    
     5    2    3 2    
     6    2    4 am   BACKBONE|DICT|INTERRES
     7    4    5 1    
     8    4   70 1    
     9    5    6 1    
    10    5   65 1    
    11    5   71 1    
    12    6    7 1    
    13    6   72 1    
    14    6   73 1    
    15    7    8 1    
    16    8    9 1    
    17    8   74 1    
    18    8   75 1    
    19    9   10 ar   
    20    9   14 ar   
    21   10   11 ar   
    22   10   76 1    
    23   11   12 ar   
    24   11   48 1    
    25   12   13 ar   
    26   12   77 1    
    27   13   14 ar   
    28   13   15 1    
    29   14   78 1    
    30   15   16 1    
    31   15   79 1    
    32   15   80 1    
    33   16   17 1    
    34   17   18 1    
    35   17   81 1    
    36   17   82 1    
    37   18   19 1    
    38   18   22 1    
    39   18   83 1    
    40   19   20 am   BACKBONE|DICT|INTERRES
    41   19   21 2    
    42   20   84 1    
    43   20   85 1    
    44   22   23 am   BACKBONE|DICT|INTERRES
    45   22   86 1    
    46   23   24 2    
    47   23   25 1    
    48   25   26 1    
    49   25   27 1    
    50   25   87 1    
    51   26   88 1    
    52   26   89 1    
    53   26   90 1    
    54   27   28 am   BACKBONE|DICT|INTERRES
    55   27   91 1    
    56   28   29 2    
    57   28   30 1    
    58   30   31 1    
    59   30   32 1    
    60   30   92 1    
    61   31   93 1    
    62   31   94 1    
    63   31   95 1    
    64   32   33 am   BACKBONE|DICT|INTERRES
    65   32   96 1    
    66   33   34 2    
    67   33   35 1    
    68   35   36 1    
    69   35   37 1    
    70   35   97 1    
    71   36   98 1    
    72   36   99 1    
    73   36  100 1    
    74   37   38 am   BACKBONE|DICT|INTERRES
    75   37  101 1    
    76   38   39 2    
    77   38   40 1    
    78   40   41 1    
    79   40   42 1    
    80   40  102 1    
    81   41  103 1    
    82   41  104 1    
    83   41  105 1    
    84   42   43 am   BACKBONE|DICT|INTERRES
    85   42  106 1    
    86   43   44 2    
    87   43   45 1    
    88   45   46 1    
    89   45   49 1    
    90   45  107 1    
    91   46   47 1    
    92   46  108 1    
    93   46  109 1    
    94   47   48 1    
    95   48  110 1    
    96   48  111 1    
    97   49   50 am   BACKBONE|DICT|INTERRES
    98   49  112 1    
    99   50   51 2    
   100   50   52 1    
   101   52   53 1    
   102   52   54 1    
   103   52  113 1    
   104   53  114 1    
   105   53  115 1    
   106   53  116 1    
   107   54   55 am   BACKBONE|DICT|INTERRES
   108   54  117 1    
   109   55   56 2    
   110   55   57 1    
   111   57   58 1    
   112   57   59 1    
   113   57  118 1    
   114   58  119 1    
   115   58  120 1    
   116   58  121 1    
   117   59   60 am   BACKBONE|DICT|INTERRES
   118   59  122 1    
   119   60   61 2    
   120   60   62 1    
   121   62   63 1    
   122   62   64 1    
   123   62  123 1    
   124   63  124 1    
   125   63  125 1    
   126   63  126 1    
   127   64   65 am   BACKBONE|DICT|INTERRES
   128   64  127 1    
   129   65   66 2    
@<TRIPOS>SUBSTRUCTURE
     1 UNK         1 GROUP             0       ****    0 ROOT    
