@<TRIPOS>MOLECULE
3R134
127   129    1
SMALL
USER_CHARGES


@<TRIPOS>ATOM
      1 CA         32.3969  -49.7875  -58.1238 C.3       0 UNK        -0.1968 
      2 C          32.7610  -49.1476  -56.7938 C.2       0 UNK         0.4852 
      3 O          32.5429  -49.7567  -55.7471 O.2       0 UNK        -0.5359 
      4 N          33.3311  -47.9332  -56.8235 N.am      1 UNK        -0.4300 
      5 CA         33.6684  -47.1175  -55.6454 C.3       1 UNK         0.0863 
      6 C6         34.1906  -45.7151  -56.0598 C.3       11 UNK        -0.0953 
      7 S7         33.7164  -44.4264  -54.8608 S.3       11 UNK        -0.2369 
      8 C8         32.2842  -43.6890  -55.7187 C.3       11 UNK         0.0226 
      9 C9         31.2648  -42.9864  -54.8227 C.ar      11 UNK        -0.0699 
     10 C10        31.1589  -43.2429  -53.4489 C.ar      11 UNK        -0.0804 
     11 C11        30.1648  -42.6283  -52.6800 C.ar      11 UNK        -0.0871 
     12 C12        29.2693  -41.7493  -53.2946 C.ar      11 UNK        -0.1008 
     13 C13        29.3656  -41.4758  -54.6610 C.ar      11 UNK        -0.0735 
     14 C14        30.3683  -42.0915  -55.4151 C.ar      11 UNK        -0.0945 
     15 C15        28.3890  -40.5071  -55.3116 C.3       11 UNK         0.0169 
     16 S16        26.9357  -41.3703  -55.9875 S.3       11 UNK        -0.2669 
     17 C17        27.5242  -41.7765  -57.6652 C.3       11 UNK        -0.0850 
     18 CA         26.5107  -42.6338  -58.4626 C.3       10 UNK         0.0855 
     19 C          26.9593  -42.7542  -59.9447 C.2       10 UNK         0.5543 
     20 N          26.2890  -42.0660  -60.8584 N.am      10 UNK        -0.7343 
     21 O          27.9417  -43.4222  -60.2592 O.2       10 UNK        -0.5027 
     22 N          26.3181  -43.9485  -57.8349 N.am      10 UNK        -0.4495 
     23 C          25.3972  -44.8504  -58.1971 C.2       10 UNK         0.4903 
     24 O          24.5334  -44.6431  -59.0514 O.2       10 UNK        -0.4860 
     25 CA         25.4518  -46.2066  -57.4654 C.3       9 UNK         0.0227 
     26 CB         24.5760  -47.2890  -58.1316 C.3       9 UNK        -0.1964 
     27 N          26.8214  -46.6957  -57.2655 N.am      9 UNK        -0.4231 
     28 C          27.7325  -46.9843  -58.2096 C.2       9 UNK         0.5014 
     29 O          27.5422  -46.8767  -59.4213 O.2       9 UNK        -0.5270 
     30 CA         29.0885  -47.5073  -57.7047 C.3       8 UNK         0.0284 
     31 CB         29.9132  -46.3665  -57.0887 C.3       8 UNK        -0.1977 
     32 N          28.9318  -48.5919  -56.7327 N.am      8 UNK        -0.4342 
     33 C          28.4050  -49.7934  -57.0163 C.2       8 UNK         0.5039 
     34 O          28.1284  -50.1731  -58.1546 O.2       8 UNK        -0.5547 
     35 CA         28.1006  -50.7161  -55.8267 C.3       7 UNK         0.0281 
     36 CB         29.3411  -51.5274  -55.4202 C.3       7 UNK        -0.1963 
     37 N          27.5888  -49.9547  -54.6842 N.am      7 UNK        -0.4444 
     38 C          26.3286  -49.5038  -54.5902 C.2       7 UNK         0.5104 
     39 O          25.4457  -49.7703  -55.4050 O.2       7 UNK        -0.5100 
     40 CA         25.9829  -48.6023  -53.3904 C.3       6 UNK         0.0396 
     41 CB         25.3224  -49.4289  -52.2758 C.3       6 UNK        -0.1801 
     42 N          27.1377  -47.8899  -52.8386 N.am      6 UNK        -0.4747 
     43 C          27.7715  -46.8689  -53.4357 C.2       6 UNK         0.5012 
     44 O          27.4336  -46.3956  -54.5201 O.2       6 UNK        -0.5003 
     45 CA         29.0333  -46.3394  -52.7216 C.3       5 UNK         0.0782 
     46 C46        28.6408  -45.3070  -51.6348 C.3       11 UNK        -0.0868 
     47 S47        30.0930  -44.6555  -50.7405 S.3       11 UNK        -0.2515 
     48 C48        30.0612  -42.8868  -51.1805 C.3       11 UNK         0.0199 
     49 N          29.8390  -47.4386  -52.1702 N.am      5 UNK        -0.4607 
     50 C          30.3801  -48.4319  -52.8843 C.2       4 UNK         0.5031 
     51 O          30.3011  -48.5110  -54.1111 O.2       4 UNK        -0.5119 
     52 CA         30.9935  -49.5769  -52.0736 C.3       4 UNK         0.0263 
     53 CB         29.8625  -50.4951  -51.5563 C.3       4 UNK        -0.1967 
     54 N          31.9471  -50.3367  -52.8846 N.am      4 UNK        -0.4237 
     55 C          32.7603  -51.2897  -52.4035 C.2       3 UNK         0.4908 
     56 O          32.8169  -51.6082  -51.2148 O.2       3 UNK        -0.5102 
     57 CA         33.6835  -52.0022  -53.3997 C.3       3 UNK         0.0241 
     58 CB         32.8888  -52.8404  -54.4170 C.3       3 UNK        -0.1971 
     59 N          34.5285  -51.0310  -54.0884 N.am      3 UNK        -0.4139 
     60 C          35.7342  -50.6347  -53.6543 C.2       2 UNK         0.5016 
     61 O          36.3022  -51.1186  -52.6741 O.2       2 UNK        -0.5319 
     62 CA         36.4415  -49.5124  -54.4381 C.3       2 UNK         0.0286 
     63 CB         37.4933  -50.1028  -55.3914 C.3       2 UNK        -0.1963 
     64 N          35.5247  -48.6661  -55.2045 N.am      2 UNK        -0.4790 
     65 C          34.6421  -47.8112  -54.6666 C.2       1 UNK         0.5024 
     66 O          34.5585  -47.5895  -53.4582 O.2       1 UNK        -0.4888 
     67 H67        31.3366  -50.0379  -58.1378 H         1 UNK         0.0892 
     68 H68        32.6001  -49.1261  -58.9655 H         1 UNK         0.0892 
     69 H69        32.9651  -50.7064  -58.2646 H         1 UNK         0.0892 
     70 H70        33.5115  -47.5014  -57.7185 H         1 UNK         0.3107 
     71 H71        32.7272  -46.9948  -55.1037 H         1 UNK         0.0773 
     72 H72        35.2761  -45.7072  -56.1787 H         1 UNK         0.0680 
     73 H73        33.7967  -45.4283  -57.0362 H         1 UNK         0.0680 
     74 H74        31.7556  -44.4716  -56.2600 H         1 UNK         0.0650 
     75 H75        32.6614  -42.9924  -56.4690 H         1 UNK         0.0650 
     76 H76        31.8365  -43.9328  -52.9670 H         1 UNK         0.1397 
     77 H77        28.4961  -41.2702  -52.7092 H         1 UNK         0.1363 
     78 H78        30.4463  -41.8817  -56.4726 H         1 UNK         0.1355 
     79 H79        28.0479  -39.7772  -54.5757 H         1 UNK         0.0707 
     80 H80        28.8852  -39.9327  -56.0955 H         1 UNK         0.0707 
     81 H81        27.7186  -40.8355  -58.1845 H         1 UNK         0.1034 
     82 H82        28.4817  -42.2945  -57.6004 H         1 UNK         0.1034 
     83 H83        25.5460  -42.1224  -58.4387 H         1 UNK         0.0482 
     84 H84        26.5792  -42.1183  -61.8224 H         1 UNK         0.3460 
     85 H85        25.4861  -41.5103  -60.6066 H         1 UNK         0.3460 
     86 H86        26.9845  -44.2010  -57.1209 H         1 UNK         0.2989 
     87 H87        25.0493  -46.0290  -56.4671 H         1 UNK         0.0559 
     88 H88        23.5297  -46.9828  -58.1614 H         1 UNK         0.0848 
     89 H89        24.6217  -48.2292  -57.5820 H         1 UNK         0.0848 
     90 H90        24.8867  -47.4861  -59.1580 H         1 UNK         0.0848 
     91 H91        27.1108  -46.7632  -56.2907 H         1 UNK         0.3144 
     92 H92        29.6395  -47.9028  -58.5606 H         1 UNK         0.0727 
     93 H93        29.4129  -45.9072  -56.2362 H         1 UNK         0.0790 
     94 H94        30.0935  -45.5799  -57.8228 H         1 UNK         0.0790 
     95 H95        30.8820  -46.7218  -56.7460 H         1 UNK         0.0790 
     96 H96        29.2249  -48.4069  -55.7775 H         1 UNK         0.3215 
     97 H97        27.3318  -51.4242  -56.1448 H         1 UNK         0.0863 
     98 H98        29.1206  -52.2115  -54.6011 H         1 UNK         0.0808 
     99 H99        30.1641  -50.8858  -55.1118 H         1 UNK         0.0808 
    100 H100       29.7008  -52.1287  -56.2561 H         1 UNK         0.0808 
    101 H101       28.2647  -49.6494  -53.9996 H         1 UNK         0.3118 
    102 H102       25.2609  -47.8595  -53.7370 H         1 UNK         0.0546 
    103 H103       25.9998  -50.1842  -51.8754 H         1 UNK         0.0828 
    104 H104       24.4387  -49.9494  -52.6480 H         1 UNK         0.0828 
    105 H105       24.9975  -48.7955  -51.4502 H         1 UNK         0.0828 
    106 H106       27.4844  -48.2103  -51.9460 H         1 UNK         0.3005 
    107 H107       29.6401  -45.8339  -53.4766 H         1 UNK         0.1257 
    108 H108       27.9731  -45.7563  -50.8971 H         1 UNK         0.0775 
    109 H109       28.0843  -44.4793  -52.0792 H         1 UNK         0.0775 
    110 H110       29.1509  -42.4454  -50.7715 H         1 UNK         0.0840 
    111 H111       30.8934  -42.3876  -50.6827 H         1 UNK         0.0840 
    112 H112       29.9551  -47.4344  -51.1669 H         1 UNK         0.2987 
    113 H113       31.5319  -49.1447  -51.2276 H         1 UNK         0.0785 
    114 H114       29.1086  -49.9314  -51.0058 H         1 UNK         0.0798 
    115 H115       30.2381  -51.2557  -50.8725 H         1 UNK         0.0798 
    116 H116       29.3554  -51.0089  -52.3731 H         1 UNK         0.0798 
    117 H117       31.9798  -50.0850  -53.8725 H         1 UNK         0.3079 
    118 H118       34.3115  -52.6943  -52.8340 H         1 UNK         0.0794 
    119 H119       32.2482  -52.2286  -55.0504 H         1 UNK         0.0786 
    120 H120       33.5572  -53.4031  -55.0686 H         1 UNK         0.0786 
    121 H121       32.2480  -53.5622  -53.9090 H         1 UNK         0.0786 
    122 H122       34.0921  -50.5315  -54.8577 H         1 UNK         0.3032 
    123 H123       36.9542  -48.8824  -53.7073 H         1 UNK         0.1094 
    124 H124       37.0378  -50.7354  -56.1544 H         1 UNK         0.0794 
    125 H125       38.0576  -49.3183  -55.8961 H         1 UNK         0.0794 
    126 H126       38.2124  -50.7165  -54.8467 H         1 UNK         0.0794 
    127 H127       35.5205  -48.7871  -56.2072 H         1 UNK         0.3016 
@<TRIPOS>BOND
     1    1    2 1    
     2    1   67 1    
     3    1   68 1    
     4    1   69 1    
     5    2    3 2    
     6    2    4 am   BACKBONE|DICT|INTERRES
     7    4    5 1    
     8    4   70 1    
     9    5    6 1    
    10    5   65 1    
    11    5   71 1    
    12    6    7 1    
    13    6   72 1    
    14    6   73 1    
    15    7    8 1    
    16    8    9 1    
    17    8   74 1    
    18    8   75 1    
    19    9   10 ar   
    20    9   14 ar   
    21   10   11 ar   
    22   10   76 1    
    23   11   12 ar   
    24   11   48 1    
    25   12   13 ar   
    26   12   77 1    
    27   13   14 ar   
    28   13   15 1    
    29   14   78 1    
    30   15   16 1    
    31   15   79 1    
    32   15   80 1    
    33   16   17 1    
    34   17   18 1    
    35   17   81 1    
    36   17   82 1    
    37   18   19 1    
    38   18   22 1    
    39   18   83 1    
    40   19   20 am   BACKBONE|DICT|INTERRES
    41   19   21 2    
    42   20   84 1    
    43   20   85 1    
    44   22   23 am   BACKBONE|DICT|INTERRES
    45   22   86 1    
    46   23   24 2    
    47   23   25 1    
    48   25   26 1    
    49   25   27 1    
    50   25   87 1    
    51   26   88 1    
    52   26   89 1    
    53   26   90 1    
    54   27   28 am   BACKBONE|DICT|INTERRES
    55   27   91 1    
    56   28   29 2    
    57   28   30 1    
    58   30   31 1    
    59   30   32 1    
    60   30   92 1    
    61   31   93 1    
    62   31   94 1    
    63   31   95 1    
    64   32   33 am   BACKBONE|DICT|INTERRES
    65   32   96 1    
    66   33   34 2    
    67   33   35 1    
    68   35   36 1    
    69   35   37 1    
    70   35   97 1    
    71   36   98 1    
    72   36   99 1    
    73   36  100 1    
    74   37   38 am   BACKBONE|DICT|INTERRES
    75   37  101 1    
    76   38   39 2    
    77   38   40 1    
    78   40   41 1    
    79   40   42 1    
    80   40  102 1    
    81   41  103 1    
    82   41  104 1    
    83   41  105 1    
    84   42   43 am   BACKBONE|DICT|INTERRES
    85   42  106 1    
    86   43   44 2    
    87   43   45 1    
    88   45   46 1    
    89   45   49 1    
    90   45  107 1    
    91   46   47 1    
    92   46  108 1    
    93   46  109 1    
    94   47   48 1    
    95   48  110 1    
    96   48  111 1    
    97   49   50 am   BACKBONE|DICT|INTERRES
    98   49  112 1    
    99   50   51 2    
   100   50   52 1    
   101   52   53 1    
   102   52   54 1    
   103   52  113 1    
   104   53  114 1    
   105   53  115 1    
   106   53  116 1    
   107   54   55 am   BACKBONE|DICT|INTERRES
   108   54  117 1    
   109   55   56 2    
   110   55   57 1    
   111   57   58 1    
   112   57   59 1    
   113   57  118 1    
   114   58  119 1    
   115   58  120 1    
   116   58  121 1    
   117   59   60 am   BACKBONE|DICT|INTERRES
   118   59  122 1    
   119   60   61 2    
   120   60   62 1    
   121   62   63 1    
   122   62   64 1    
   123   62  123 1    
   124   63  124 1    
   125   63  125 1    
   126   63  126 1    
   127   64   65 am   BACKBONE|DICT|INTERRES
   128   64  127 1    
   129   65   66 2    
@<TRIPOS>SUBSTRUCTURE
     1 UNK         1 GROUP             0       ****    0 ROOT    
