@<TRIPOS>MOLECULE
3R134
127   129    1
SMALL
USER_CHARGES


@<TRIPOS>ATOM
      1 CA         37.6847  -46.1650  -51.7860 C.3       0 UNK        -0.1968 
      2 C          36.5096  -46.4062  -52.7219 C.2       0 UNK         0.4852 
      3 O          36.4815  -47.4227  -53.4175 O.2       0 UNK        -0.5359 
      4 N          35.5373  -45.4832  -52.7393 N.am      1 UNK        -0.4300 
      5 CA         34.3406  -45.5324  -53.5896 C.3       1 UNK         0.0863 
      6 C6         33.4868  -44.2521  -53.4758 C.3       11 UNK        -0.0953 
      7 S7         34.3239  -42.7108  -53.9532 S.3       11 UNK        -0.2369 
      8 C8         33.1935  -41.4958  -53.1936 C.3       11 UNK         0.0226 
      9 C9         31.7676  -41.6250  -53.7200 C.ar      11 UNK        -0.0699 
     10 C10        30.8418  -42.4434  -53.0624 C.ar      11 UNK        -0.0804 
     11 C11        29.5422  -42.5869  -53.5537 C.ar      11 UNK        -0.0871 
     12 C12        29.1552  -41.8621  -54.6848 C.ar      11 UNK        -0.1008 
     13 C13        30.0686  -41.0396  -55.3559 C.ar      11 UNK        -0.0735 
     14 C14        31.3743  -40.9291  -54.8664 C.ar      11 UNK        -0.0945 
     15 C15        29.6636  -40.2454  -56.5962 C.3       11 UNK         0.0169 
     16 S16        28.5466  -41.1379  -57.7302 S.3       11 UNK        -0.2669 
     17 C17        29.5836  -42.5553  -58.2307 C.3       11 UNK        -0.0850 
     18 CA         28.7469  -43.6845  -58.8880 C.3       10 UNK         0.0855 
     19 C          29.6568  -44.7941  -59.4961 C.2       10 UNK         0.5543 
     20 N          29.4602  -46.0741  -59.2014 N.am      10 UNK        -0.7343 
     21 O          30.5604  -44.4855  -60.2692 O.2       10 UNK        -0.5027 
     22 N          27.7073  -44.1899  -57.9769 N.am      10 UNK        -0.4495 
     23 C          26.5382  -44.7043  -58.3696 C.2       10 UNK         0.4903 
     24 O          26.1452  -44.7348  -59.5379 O.2       10 UNK        -0.4860 
     25 CA         25.6613  -45.3075  -57.2593 C.3       9 UNK         0.0227 
     26 CB         24.3924  -44.4665  -57.0461 C.3       9 UNK        -0.1964 
     27 N          25.2921  -46.6980  -57.5411 N.am      9 UNK        -0.4231 
     28 C          26.1666  -47.6919  -57.7472 C.2       9 UNK         0.5014 
     29 O          27.3896  -47.5423  -57.7518 O.2       9 UNK        -0.5270 
     30 CA         25.5864  -49.0803  -58.0211 C.3       8 UNK         0.0284 
     31 CB         25.5582  -49.3705  -59.5333 C.3       8 UNK        -0.1977 
     32 N          26.4052  -50.0704  -57.3254 N.am      8 UNK        -0.4342 
     33 C          26.0021  -51.3027  -56.9924 C.2       8 UNK         0.5039 
     34 O          24.8967  -51.7640  -57.2814 O.2       8 UNK        -0.5547 
     35 CA         26.9799  -52.1608  -56.1771 C.3       7 UNK         0.0281 
     36 CB         28.1201  -52.6994  -57.0583 C.3       7 UNK        -0.1963 
     37 N          27.5263  -51.4021  -55.0513 N.am      7 UNK        -0.4444 
     38 C          26.9309  -51.2990  -53.8541 C.2       7 UNK         0.5104 
     39 O          25.8911  -51.8890  -53.5570 O.2       7 UNK        -0.5100 
     40 CA         27.5990  -50.4009  -52.7947 C.3       6 UNK         0.0396 
     41 CB         28.4136  -51.2576  -51.8135 C.3       6 UNK        -0.1801 
     42 N          28.4511  -49.3513  -53.3650 N.am      6 UNK        -0.4747 
     43 C          27.9714  -48.2825  -54.0224 C.2       6 UNK         0.5012 
     44 O          26.7667  -48.0588  -54.1483 O.2       6 UNK        -0.5003 
     45 CA         28.9875  -47.3331  -54.6981 C.3       5 UNK         0.0782 
     46 C46        29.3049  -46.0781  -53.8389 C.3       11 UNK        -0.0868 
     47 S47        27.9570  -44.8478  -53.9306 S.3       11 UNK        -0.2515 
     48 C48        28.5481  -43.5029  -52.8507 C.3       11 UNK         0.0199 
     49 N          30.2018  -48.0046  -55.1794 N.am      5 UNK        -0.4607 
     50 C          30.2292  -48.9853  -56.0958 C.2       4 UNK         0.5031 
     51 O          29.2256  -49.5531  -56.5236 O.2       4 UNK        -0.5119 
     52 CA         31.6064  -49.4236  -56.6074 C.3       4 UNK         0.0263 
     53 CB         32.2490  -48.3228  -57.4684 C.3       4 UNK        -0.1967 
     54 N          32.4830  -49.7492  -55.4866 N.am      4 UNK        -0.4237 
     55 C          32.6758  -50.9844  -55.0043 C.2       3 UNK         0.4908 
     56 O          32.2185  -52.0041  -55.5219 O.2       3 UNK        -0.5102 
     57 CA         33.5125  -51.1133  -53.7165 C.3       3 UNK         0.0241 
     58 CB         34.9827  -51.4060  -54.0572 C.3       3 UNK        -0.1971 
     59 N          33.4463  -49.9376  -52.8434 N.am      3 UNK        -0.4139 
     60 C          32.3280  -49.4711  -52.2699 C.2       2 UNK         0.5016 
     61 O          31.2206  -49.9904  -52.3956 O.2       2 UNK        -0.5319 
     62 CA         32.4498  -48.1627  -51.4742 C.3       2 UNK         0.0286 
     63 CB         32.8076  -48.4566  -50.0090 C.3       2 UNK        -0.1963 
     64 N          33.4035  -47.1910  -52.0243 N.am      2 UNK        -0.4790 
     65 C          33.4110  -46.7214  -53.2823 C.2       1 UNK         0.5024 
     66 O          32.6853  -47.1523  -54.1782 O.2       1 UNK        -0.4888 
     67 H67        38.6129  -46.1186  -52.3550 H         1 UNK         0.0892 
     68 H68        37.5806  -45.2327  -51.2312 H         1 UNK         0.0892 
     69 H69        37.7656  -46.9803  -51.0676 H         1 UNK         0.0892 
     70 H70        35.6252  -44.6584  -52.1624 H         1 UNK         0.3107 
     71 H71        34.6726  -45.6394  -54.6244 H         1 UNK         0.0773 
     72 H72        33.1278  -44.1414  -52.4507 H         1 UNK         0.0680 
     73 H73        32.6023  -44.3359  -54.1117 H         1 UNK         0.0680 
     74 H74        33.2079  -41.6187  -52.1095 H         1 UNK         0.0650 
     75 H75        33.5724  -40.4917  -53.3895 H         1 UNK         0.0650 
     76 H76        31.1379  -42.9807  -52.1725 H         1 UNK         0.1397 
     77 H77        28.1411  -41.9528  -55.0491 H         1 UNK         0.1363 
     78 H78        32.0890  -40.2968  -55.3756 H         1 UNK         0.1355 
     79 H79        29.1697  -39.3285  -56.2723 H         1 UNK         0.0707 
     80 H80        30.5468  -39.9384  -57.1587 H         1 UNK         0.0707 
     81 H81        30.1230  -42.9440  -57.3651 H         1 UNK         0.1034 
     82 H82        30.3427  -42.1822  -58.9209 H         1 UNK         0.1034 
     83 H83        28.2429  -43.2373  -59.7470 H         1 UNK         0.0482 
     84 H84        30.0568  -46.7640  -59.6261 H         1 UNK         0.3460 
     85 H85        28.6967  -46.3769  -58.6038 H         1 UNK         0.3460 
     86 H86        27.9518  -44.2147  -56.9979 H         1 UNK         0.2989 
     87 H87        26.2253  -45.3099  -56.3250 H         1 UNK         0.0559 
     88 H88        23.7602  -44.4563  -57.9351 H         1 UNK         0.0848 
     89 H89        24.6471  -43.4309  -56.8162 H         1 UNK         0.0848 
     90 H90        23.7988  -44.8444  -56.2136 H         1 UNK         0.0848 
     91 H91        24.3045  -46.9008  -57.5947 H         1 UNK         0.3144 
     92 H92        24.5697  -49.1207  -57.6240 H         1 UNK         0.0727 
     93 H93        26.5623  -49.3658  -59.9596 H         1 UNK         0.0790 
     94 H94        24.9737  -48.6185  -60.0650 H         1 UNK         0.0790 
     95 H95        25.1082  -50.3402  -59.7467 H         1 UNK         0.0790 
     96 H96        27.3358  -49.7485  -57.0589 H         1 UNK         0.3215 
     97 H97        26.4291  -53.0227  -55.7935 H         1 UNK         0.0863 
     98 H98        28.6991  -51.9001  -57.5205 H         1 UNK         0.0808 
     99 H99        27.7250  -53.3187  -57.8645 H         1 UNK         0.0808 
    100 H100       28.8078  -53.3181  -56.4815 H         1 UNK         0.0808 
    101 H101       28.3364  -50.8237  -55.2479 H         1 UNK         0.3118 
    102 H102       26.8014  -49.9157  -52.2281 H         1 UNK         0.0546 
    103 H103       28.8559  -50.6484  -51.0252 H         1 UNK         0.0828 
    104 H104       29.2195  -51.7915  -52.3185 H         1 UNK         0.0828 
    105 H105       27.7825  -52.0043  -51.3298 H         1 UNK         0.0828 
    106 H106       29.4553  -49.4800  -53.2743 H         1 UNK         0.3005 
    107 H107       28.4967  -46.9776  -55.6040 H         1 UNK         0.1257 
    108 H108       30.2096  -45.5885  -54.2036 H         1 UNK         0.0775 
    109 H109       29.4999  -46.3450  -52.7987 H         1 UNK         0.0775 
    110 H110       27.6900  -42.9074  -52.5360 H         1 UNK         0.0840 
    111 H111       28.9732  -43.9287  -51.9404 H         1 UNK         0.0840 
    112 H112       31.0864  -47.6247  -54.8506 H         1 UNK         0.2987 
    113 H113       31.4650  -50.3019  -57.2413 H         1 UNK         0.0785 
    114 H114       33.2056  -48.6499  -57.8758 H         1 UNK         0.0798 
    115 H115       31.6078  -48.0678  -58.3128 H         1 UNK         0.0798 
    116 H116       32.4234  -47.4061  -56.9040 H         1 UNK         0.0798 
    117 H117       32.8511  -48.9609  -54.9649 H         1 UNK         0.3079 
    118 H118       33.1138  -51.9613  -53.1557 H         1 UNK         0.0794 
    119 H119       35.5678  -51.5998  -53.1580 H         1 UNK         0.0786 
    120 H120       35.4472  -50.5733  -54.5875 H         1 UNK         0.0786 
    121 H121       35.0686  -52.2878  -54.6939 H         1 UNK         0.0786 
    122 H122       34.3029  -49.4195  -52.7049 H         1 UNK         0.3032 
    123 H123       31.4652  -47.6905  -51.4946 H         1 UNK         0.1094 
    124 H124       32.1040  -49.1656  -49.5698 H         1 UNK         0.0794 
    125 H125       33.8055  -48.8867  -49.9150 H         1 UNK         0.0794 
    126 H126       32.7722  -47.5520  -49.4016 H         1 UNK         0.0794 
    127 H127       34.0448  -46.7710  -51.3670 H         1 UNK         0.3016 
@<TRIPOS>BOND
     1    1    2 1    
     2    1   67 1    
     3    1   68 1    
     4    1   69 1    
     5    2    3 2    
     6    2    4 am   BACKBONE|DICT|INTERRES
     7    4    5 1    
     8    4   70 1    
     9    5    6 1    
    10    5   65 1    
    11    5   71 1    
    12    6    7 1    
    13    6   72 1    
    14    6   73 1    
    15    7    8 1    
    16    8    9 1    
    17    8   74 1    
    18    8   75 1    
    19    9   10 ar   
    20    9   14 ar   
    21   10   11 ar   
    22   10   76 1    
    23   11   12 ar   
    24   11   48 1    
    25   12   13 ar   
    26   12   77 1    
    27   13   14 ar   
    28   13   15 1    
    29   14   78 1    
    30   15   16 1    
    31   15   79 1    
    32   15   80 1    
    33   16   17 1    
    34   17   18 1    
    35   17   81 1    
    36   17   82 1    
    37   18   19 1    
    38   18   22 1    
    39   18   83 1    
    40   19   20 am   BACKBONE|DICT|INTERRES
    41   19   21 2    
    42   20   84 1    
    43   20   85 1    
    44   22   23 am   BACKBONE|DICT|INTERRES
    45   22   86 1    
    46   23   24 2    
    47   23   25 1    
    48   25   26 1    
    49   25   27 1    
    50   25   87 1    
    51   26   88 1    
    52   26   89 1    
    53   26   90 1    
    54   27   28 am   BACKBONE|DICT|INTERRES
    55   27   91 1    
    56   28   29 2    
    57   28   30 1    
    58   30   31 1    
    59   30   32 1    
    60   30   92 1    
    61   31   93 1    
    62   31   94 1    
    63   31   95 1    
    64   32   33 am   BACKBONE|DICT|INTERRES
    65   32   96 1    
    66   33   34 2    
    67   33   35 1    
    68   35   36 1    
    69   35   37 1    
    70   35   97 1    
    71   36   98 1    
    72   36   99 1    
    73   36  100 1    
    74   37   38 am   BACKBONE|DICT|INTERRES
    75   37  101 1    
    76   38   39 2    
    77   38   40 1    
    78   40   41 1    
    79   40   42 1    
    80   40  102 1    
    81   41  103 1    
    82   41  104 1    
    83   41  105 1    
    84   42   43 am   BACKBONE|DICT|INTERRES
    85   42  106 1    
    86   43   44 2    
    87   43   45 1    
    88   45   46 1    
    89   45   49 1    
    90   45  107 1    
    91   46   47 1    
    92   46  108 1    
    93   46  109 1    
    94   47   48 1    
    95   48  110 1    
    96   48  111 1    
    97   49   50 am   BACKBONE|DICT|INTERRES
    98   49  112 1    
    99   50   51 2    
   100   50   52 1    
   101   52   53 1    
   102   52   54 1    
   103   52  113 1    
   104   53  114 1    
   105   53  115 1    
   106   53  116 1    
   107   54   55 am   BACKBONE|DICT|INTERRES
   108   54  117 1    
   109   55   56 2    
   110   55   57 1    
   111   57   58 1    
   112   57   59 1    
   113   57  118 1    
   114   58  119 1    
   115   58  120 1    
   116   58  121 1    
   117   59   60 am   BACKBONE|DICT|INTERRES
   118   59  122 1    
   119   60   61 2    
   120   60   62 1    
   121   62   63 1    
   122   62   64 1    
   123   62  123 1    
   124   63  124 1    
   125   63  125 1    
   126   63  126 1    
   127   64   65 am   BACKBONE|DICT|INTERRES
   128   64  127 1    
   129   65   66 2    
@<TRIPOS>SUBSTRUCTURE
     1 UNK         1 GROUP             0       ****    0 ROOT    
