@<TRIPOS>MOLECULE
3R134
127   129    1
SMALL
USER_CHARGES


@<TRIPOS>ATOM
      1 CA         36.6404  -43.4583  -56.1832 C.3       0 UNK        -0.1968 
      2 C          35.7465  -44.5408  -55.5973 C.2       0 UNK         0.4852 
      3 O          35.4612  -44.5106  -54.3993 O.2       0 UNK        -0.5359 
      4 N          35.3174  -45.5004  -56.4303 N.am      1 UNK        -0.4300 
      5 CA         34.4125  -46.6303  -56.1470 C.3       1 UNK         0.0863 
      6 C6         33.0134  -46.2163  -55.6202 C.3       11 UNK        -0.0953 
      7 S7         32.1554  -45.0223  -56.7013 S.3       11 UNK        -0.2369 
      8 C8         32.0333  -43.5625  -55.6182 C.3       11 UNK         0.0226 
      9 C9         31.0066  -43.7661  -54.5139 C.ar      11 UNK        -0.0699 
     10 C10        31.4051  -44.1827  -53.2408 C.ar      11 UNK        -0.0804 
     11 C11        30.4590  -44.4079  -52.2371 C.ar      11 UNK        -0.0871 
     12 C12        29.1044  -44.1788  -52.5017 C.ar      11 UNK        -0.1008 
     13 C13        28.6987  -43.7340  -53.7639 C.ar      11 UNK        -0.0735 
     14 C14        29.6527  -43.5351  -54.7661 C.ar      11 UNK        -0.0945 
     15 C15        27.2376  -43.4352  -54.0513 C.3       11 UNK         0.0169 
     16 S16        26.5193  -44.6592  -55.1887 S.3       11 UNK        -0.2669 
     17 C17        25.1454  -43.6848  -55.9025 C.3       11 UNK        -0.0850 
     18 CA         25.4102  -43.2052  -57.3555 C.3       10 UNK         0.0855 
     19 C          26.5432  -42.1376  -57.4302 C.2       10 UNK         0.5543 
     20 N          27.6631  -42.3982  -58.0939 N.am      10 UNK        -0.7343 
     21 O          26.3941  -41.0491  -56.8806 O.2       10 UNK        -0.5027 
     22 N          25.5412  -44.3478  -58.2720 N.am      10 UNK        -0.4495 
     23 C          25.4633  -44.3060  -59.6061 C.2       10 UNK         0.4903 
     24 O          25.2757  -43.2677  -60.2422 O.2       10 UNK        -0.4860 
     25 CA         25.6082  -45.6526  -60.3513 C.3       9 UNK         0.0227 
     26 CB         25.6535  -45.4779  -61.8816 C.3       9 UNK        -0.1964 
     27 N          26.7729  -46.4436  -59.9315 N.am      9 UNK        -0.4231 
     28 C          26.8857  -47.1222  -58.7825 C.2       9 UNK         0.5014 
     29 O          26.0316  -47.0967  -57.8918 O.2       9 UNK        -0.5270 
     30 CA         28.1854  -47.9244  -58.5853 C.3       8 UNK         0.0284 
     31 CB         29.3249  -46.9937  -58.1355 C.3       8 UNK        -0.1977 
     32 N          28.0193  -48.9699  -57.5769 N.am      8 UNK        -0.4342 
     33 C          27.2157  -50.0386  -57.6814 C.2       8 UNK         0.5039 
     34 O          26.6731  -50.3930  -58.7294 O.2       8 UNK        -0.5547 
     35 CA         26.9395  -50.8164  -56.3848 C.3       7 UNK         0.0281 
     36 CB         28.0325  -51.8647  -56.1255 C.3       7 UNK        -0.1963 
     37 N          26.8510  -49.8901  -55.2520 N.am      7 UNK        -0.4444 
     38 C          25.7175  -49.3073  -54.8365 C.2       7 UNK         0.5104 
     39 O          24.6026  -49.6308  -55.2493 O.2       7 UNK        -0.5100 
     40 CA         25.8194  -48.1453  -53.8233 C.3       6 UNK         0.0396 
     41 CB         24.9414  -48.3861  -52.5776 C.3       6 UNK        -0.1801 
     42 N          27.1895  -47.7545  -53.4551 N.am      6 UNK        -0.4747 
     43 C          28.0709  -48.4482  -52.7201 C.2       6 UNK         0.5012 
     44 O          27.8272  -49.5340  -52.1909 O.2       6 UNK        -0.5003 
     45 CA         29.4916  -47.8579  -52.6049 C.3       5 UNK         0.0782 
     46 C46        29.7948  -47.4844  -51.1333 C.3       11 UNK        -0.0868 
     47 S47        31.4047  -46.6558  -50.9283 S.3       11 UNK        -0.2515 
     48 C48        30.9128  -44.9025  -50.8720 C.3       11 UNK         0.0199 
     49 N          30.4783  -48.7901  -53.1655 N.am      5 UNK        -0.4607 
     50 C          30.4728  -49.2417  -54.4265 C.2       4 UNK         0.5031 
     51 O          29.6622  -48.8485  -55.2683 O.2       4 UNK        -0.5119 
     52 CA         31.4998  -50.3206  -54.8294 C.3       4 UNK         0.0263 
     53 CB         31.9106  -50.1944  -56.3093 C.3       4 UNK        -0.1967 
     54 N          32.7036  -50.3807  -53.9905 N.am      4 UNK        -0.4237 
     55 C          32.7770  -50.9960  -52.7996 C.2       3 UNK         0.4908 
     56 O          31.7967  -51.4756  -52.2300 O.2       3 UNK        -0.5102 
     57 CA         34.1559  -51.1288  -52.1248 C.3       3 UNK         0.0241 
     58 CB         34.6619  -52.5776  -52.2268 C.3       3 UNK        -0.1971 
     59 N          35.1724  -50.2349  -52.6803 N.am      3 UNK        -0.4139 
     60 C          35.2814  -48.9331  -52.3892 C.2       2 UNK         0.5016 
     61 O          34.5569  -48.3496  -51.5836 O.2       2 UNK        -0.5319 
     62 CA         36.3618  -48.1327  -53.1393 C.3       2 UNK         0.0286 
     63 CB         37.5130  -48.9954  -53.7062 C.3       2 UNK        -0.1963 
     64 N          35.7620  -47.3060  -54.1907 N.am      2 UNK        -0.4790 
     65 C          35.0217  -47.7140  -55.2307 C.2       1 UNK         0.5024 
     66 O          34.7979  -48.8997  -55.4785 O.2       1 UNK        -0.4888 
     67 H67        37.6056  -43.4546  -55.6776 H         1 UNK         0.0892 
     68 H68        36.8156  -43.6046  -57.2489 H         1 UNK         0.0892 
     69 H69        36.1801  -42.4801  -56.0469 H         1 UNK         0.0892 
     70 H70        35.6278  -45.4606  -57.3912 H         1 UNK         0.3107 
     71 H71        34.2584  -47.1141  -57.1131 H         1 UNK         0.0773 
     72 H72        33.1013  -45.8145  -54.6127 H         1 UNK         0.0680 
     73 H73        32.3636  -47.0875  -55.5305 H         1 UNK         0.0680 
     74 H74        31.7517  -42.7001  -56.2241 H         1 UNK         0.0650 
     75 H75        33.0119  -43.3311  -55.1965 H         1 UNK         0.0650 
     76 H76        32.4526  -44.3517  -53.0310 H         1 UNK         0.1397 
     77 H77        28.3684  -44.3399  -51.7256 H         1 UNK         0.1363 
     78 H78        29.3376  -43.2040  -55.7465 H         1 UNK         0.1355 
     79 H79        27.1692  -42.4360  -54.4833 H         1 UNK         0.0707 
     80 H80        26.6514  -43.4144  -53.1313 H         1 UNK         0.0707 
     81 H81        24.2518  -44.3105  -55.8855 H         1 UNK         0.1034 
     82 H82        24.9097  -42.8370  -55.2563 H         1 UNK         0.1034 
     83 H83        24.5094  -42.6762  -57.6724 H         1 UNK         0.0482 
     84 H84        27.7834  -43.2863  -58.5519 H         1 UNK         0.3460 
     85 H85        28.3830  -41.6958  -58.1469 H         1 UNK         0.3460 
     86 H86        25.7096  -45.2538  -57.8404 H         1 UNK         0.2989 
     87 H87        24.7113  -46.2303  -60.1180 H         1 UNK         0.0559 
     88 H88        26.5212  -44.8967  -62.1963 H         1 UNK         0.0848 
     89 H89        25.6897  -46.4407  -62.3918 H         1 UNK         0.0848 
     90 H90        24.7650  -44.9591  -62.2442 H         1 UNK         0.0848 
     91 H91        27.5409  -46.4834  -60.5866 H         1 UNK         0.3144 
     92 H92        28.4561  -48.3991  -59.5305 H         1 UNK         0.0727 
     93 H93        30.2541  -47.5449  -57.9874 H         1 UNK         0.0790 
     94 H94        29.0875  -46.4906  -57.1963 H         1 UNK         0.0790 
     95 H95        29.5242  -46.2198  -58.8775 H         1 UNK         0.0790 
     96 H96        28.4754  -48.7973  -56.6843 H         1 UNK         0.3215 
     97 H97        25.9905  -51.3443  -56.5029 H         1 UNK         0.0863 
     98 H98        27.8651  -52.3909  -55.1856 H         1 UNK         0.0808 
     99 H99        29.0239  -51.4174  -56.0900 H         1 UNK         0.0808 
    100 H100       28.0451  -52.6125  -56.9195 H         1 UNK         0.0808 
    101 H101       27.7267  -49.5442  -54.8792 H         1 UNK         0.3118 
    102 H102       25.4038  -47.2800  -54.3404 H         1 UNK         0.0546 
    103 H103       23.8938  -48.5024  -52.8578 H         1 UNK         0.0828 
    104 H104       24.9975  -47.5477  -51.8836 H         1 UNK         0.0828 
    105 H105       25.2302  -49.2896  -52.0407 H         1 UNK         0.0828 
    106 H106       27.4971  -46.8864  -53.8754 H         1 UNK         0.3005 
    107 H107       29.5398  -46.9492  -53.2089 H         1 UNK         0.1257 
    108 H108       29.7978  -48.3787  -50.5070 H         1 UNK         0.0775 
    109 H109       29.0120  -46.8393  -50.7296 H         1 UNK         0.0775 
    110 H110       30.1342  -44.7594  -50.1212 H         1 UNK         0.0840 
    111 H111       31.7659  -44.3088  -50.5402 H         1 UNK         0.0840 
    112 H112       31.1425  -49.1835  -52.5147 H         1 UNK         0.2987 
    113 H113       30.9826  -51.2764  -54.7252 H         1 UNK         0.0785 
    114 H114       31.0496  -50.2985  -56.9707 H         1 UNK         0.0798 
    115 H115       32.3625  -49.2272  -56.5247 H         1 UNK         0.0798 
    116 H116       32.6250  -50.9678  -56.5915 H         1 UNK         0.0798 
    117 H117       33.5456  -49.9747  -54.3887 H         1 UNK         0.3079 
    118 H118       34.0227  -50.8904  -51.0672 H         1 UNK         0.0794 
    119 H119       33.9460  -53.2740  -51.7875 H         1 UNK         0.0786 
    120 H120       35.6043  -52.7075  -51.6941 H         1 UNK         0.0786 
    121 H121       34.8164  -52.8802  -53.2634 H         1 UNK         0.0786 
    122 H122       35.7913  -50.6216  -53.3787 H         1 UNK         0.3032 
    123 H123       36.7935  -47.4466  -52.4085 H         1 UNK         0.1094 
    124 H124       38.3020  -48.3650  -54.1164 H         1 UNK         0.0794 
    125 H125       37.9680  -49.6053  -52.9245 H         1 UNK         0.0794 
    126 H126       37.1869  -49.6653  -54.5022 H         1 UNK         0.0794 
    127 H127       35.8164  -46.2980  -54.0531 H         1 UNK         0.3016 
@<TRIPOS>BOND
     1    1    2 1    
     2    1   67 1    
     3    1   68 1    
     4    1   69 1    
     5    2    3 2    
     6    2    4 am   BACKBONE|DICT|INTERRES
     7    4    5 1    
     8    4   70 1    
     9    5    6 1    
    10    5   65 1    
    11    5   71 1    
    12    6    7 1    
    13    6   72 1    
    14    6   73 1    
    15    7    8 1    
    16    8    9 1    
    17    8   74 1    
    18    8   75 1    
    19    9   10 ar   
    20    9   14 ar   
    21   10   11 ar   
    22   10   76 1    
    23   11   12 ar   
    24   11   48 1    
    25   12   13 ar   
    26   12   77 1    
    27   13   14 ar   
    28   13   15 1    
    29   14   78 1    
    30   15   16 1    
    31   15   79 1    
    32   15   80 1    
    33   16   17 1    
    34   17   18 1    
    35   17   81 1    
    36   17   82 1    
    37   18   19 1    
    38   18   22 1    
    39   18   83 1    
    40   19   20 am   BACKBONE|DICT|INTERRES
    41   19   21 2    
    42   20   84 1    
    43   20   85 1    
    44   22   23 am   BACKBONE|DICT|INTERRES
    45   22   86 1    
    46   23   24 2    
    47   23   25 1    
    48   25   26 1    
    49   25   27 1    
    50   25   87 1    
    51   26   88 1    
    52   26   89 1    
    53   26   90 1    
    54   27   28 am   BACKBONE|DICT|INTERRES
    55   27   91 1    
    56   28   29 2    
    57   28   30 1    
    58   30   31 1    
    59   30   32 1    
    60   30   92 1    
    61   31   93 1    
    62   31   94 1    
    63   31   95 1    
    64   32   33 am   BACKBONE|DICT|INTERRES
    65   32   96 1    
    66   33   34 2    
    67   33   35 1    
    68   35   36 1    
    69   35   37 1    
    70   35   97 1    
    71   36   98 1    
    72   36   99 1    
    73   36  100 1    
    74   37   38 am   BACKBONE|DICT|INTERRES
    75   37  101 1    
    76   38   39 2    
    77   38   40 1    
    78   40   41 1    
    79   40   42 1    
    80   40  102 1    
    81   41  103 1    
    82   41  104 1    
    83   41  105 1    
    84   42   43 am   BACKBONE|DICT|INTERRES
    85   42  106 1    
    86   43   44 2    
    87   43   45 1    
    88   45   46 1    
    89   45   49 1    
    90   45  107 1    
    91   46   47 1    
    92   46  108 1    
    93   46  109 1    
    94   47   48 1    
    95   48  110 1    
    96   48  111 1    
    97   49   50 am   BACKBONE|DICT|INTERRES
    98   49  112 1    
    99   50   51 2    
   100   50   52 1    
   101   52   53 1    
   102   52   54 1    
   103   52  113 1    
   104   53  114 1    
   105   53  115 1    
   106   53  116 1    
   107   54   55 am   BACKBONE|DICT|INTERRES
   108   54  117 1    
   109   55   56 2    
   110   55   57 1    
   111   57   58 1    
   112   57   59 1    
   113   57  118 1    
   114   58  119 1    
   115   58  120 1    
   116   58  121 1    
   117   59   60 am   BACKBONE|DICT|INTERRES
   118   59  122 1    
   119   60   61 2    
   120   60   62 1    
   121   62   63 1    
   122   62   64 1    
   123   62  123 1    
   124   63  124 1    
   125   63  125 1    
   126   63  126 1    
   127   64   65 am   BACKBONE|DICT|INTERRES
   128   64  127 1    
   129   65   66 2    
@<TRIPOS>SUBSTRUCTURE
     1 UNK         1 GROUP             0       ****    0 ROOT    
