@<TRIPOS>MOLECULE
3R134
127   129    1
SMALL
USER_CHARGES


@<TRIPOS>ATOM
      1 CA         30.0374  -44.8024  -53.0815 C.3       0 UNK        -0.1968 
      2 C          31.1590  -44.9946  -52.0803 C.2       0 UNK         0.4852 
      3 O          30.9616  -45.6474  -51.0553 O.2       0 UNK        -0.5359 
      4 N          32.3384  -44.4378  -52.3772 N.am      1 UNK        -0.4300 
      5 CA         33.5350  -44.5216  -51.5297 C.3       1 UNK         0.0863 
      6 C6         34.5012  -43.3302  -51.7543 C.3       11 UNK        -0.0953 
      7 S7         33.6492  -41.7119  -51.7458 S.3       11 UNK        -0.2369 
      8 C8         33.9256  -41.1134  -53.4449 C.3       11 UNK         0.0226 
      9 C9         33.1674  -41.9110  -54.5015 C.ar      11 UNK        -0.0699 
     10 C10        33.7877  -42.9853  -55.1459 C.ar      11 UNK        -0.0804 
     11 C11        33.1429  -43.6807  -56.1708 C.ar      11 UNK        -0.0871 
     12 C12        31.8770  -43.2477  -56.5850 C.ar      11 UNK        -0.1008 
     13 C13        31.2194  -42.2005  -55.9294 C.ar      11 UNK        -0.0735 
     14 C14        31.8730  -41.5388  -54.8827 C.ar      11 UNK        -0.0945 
     15 C15        29.8424  -41.7256  -56.3958 C.3       11 UNK         0.0169 
     16 S16        28.7058  -43.0758  -56.8857 S.3       11 UNK        -0.2669 
     17 C17        27.5244  -43.1655  -55.4922 C.3       11 UNK        -0.0850 
     18 CA         27.1266  -44.6261  -55.1230 C.3       10 UNK         0.0855 
     19 C          26.2439  -44.7178  -53.8405 C.2       10 UNK         0.5543 
     20 N          25.4489  -45.7663  -53.6657 N.am      10 UNK        -0.7343 
     21 O          26.3000  -43.8464  -52.9767 O.2       10 UNK        -0.5027 
     22 N          26.6382  -45.4106  -56.2694 N.am      10 UNK        -0.4495 
     23 C          25.5022  -45.2043  -56.9457 C.2       10 UNK         0.4903 
     24 O          24.6720  -44.3489  -56.6359 O.2       10 UNK        -0.4860 
     25 CA         25.2387  -46.0586  -58.1970 C.3       9 UNK         0.0227 
     26 CB         25.4866  -45.2082  -59.4609 C.3       9 UNK        -0.1964 
     27 N          26.0180  -47.3044  -58.2661 N.am      9 UNK        -0.4231 
     28 C          25.7127  -48.3280  -59.0767 C.2       9 UNK         0.5014 
     29 O          24.6994  -48.3702  -59.7771 O.2       9 UNK        -0.5270 
     30 CA         26.7163  -49.4902  -59.1554 C.3       8 UNK         0.0284 
     31 CB         27.9948  -49.0596  -59.8942 C.3       8 UNK        -0.1977 
     32 N          27.0570  -50.0591  -57.8507 N.am      8 UNK        -0.4342 
     33 C          26.2198  -50.7915  -57.1020 C.2       8 UNK         0.5039 
     34 O          25.0629  -51.0602  -57.4293 O.2       8 UNK        -0.5547 
     35 CA         26.7623  -51.3357  -55.7685 C.3       7 UNK         0.0281 
     36 CB         27.5411  -52.6415  -55.9953 C.3       7 UNK        -0.1963 
     37 N          27.6125  -50.3792  -55.0600 N.am      7 UNK        -0.4444 
     38 C          27.1821  -49.2234  -54.5360 C.2       7 UNK         0.5104 
     39 O          26.0068  -48.8561  -54.5349 O.2       7 UNK        -0.5100 
     40 CA         28.2599  -48.2899  -53.9629 C.3       6 UNK         0.0396 
     41 CB         28.6689  -48.7185  -52.5462 C.3       6 UNK        -0.1801 
     42 N          29.4465  -48.1888  -54.8165 N.am      6 UNK        -0.4747 
     43 C          29.4421  -47.7861  -56.0962 C.2       6 UNK         0.5012 
     44 O          28.4299  -47.4503  -56.7125 O.2       6 UNK        -0.5003 
     45 CA         30.7928  -47.7789  -56.8258 C.3       5 UNK         0.0782 
     46 C46        31.6216  -46.5426  -56.4098 C.3       11 UNK        -0.0868 
     47 S47        32.8199  -46.0738  -57.6973 S.3       11 UNK        -0.2515 
     48 C48        33.8705  -44.8651  -56.8149 C.3       11 UNK         0.0199 
     49 N          31.5099  -49.0379  -56.6171 N.am      5 UNK        -0.4607 
     50 C          31.0858  -50.2313  -57.0556 C.2       4 UNK         0.5031 
     51 O          30.0758  -50.3923  -57.7396 O.2       4 UNK        -0.5119 
     52 CA         31.8985  -51.4560  -56.6074 C.3       4 UNK         0.0263 
     53 CB         33.1476  -51.6314  -57.4855 C.3       4 UNK        -0.1967 
     54 N          32.2900  -51.3802  -55.1973 N.am      4 UNK        -0.4237 
     55 C          31.4261  -51.3815  -54.1712 C.2       3 UNK         0.4908 
     56 O          30.2068  -51.4937  -54.2999 O.2       3 UNK        -0.5102 
     57 CA         32.0195  -51.1838  -52.7660 C.3       3 UNK         0.0241 
     58 CB         32.4806  -52.5286  -52.1815 C.3       3 UNK        -0.1971 
     59 N          33.1241  -50.2176  -52.7154 N.am      3 UNK        -0.4139 
     60 C          33.0218  -48.9253  -53.0540 C.2       2 UNK         0.5016 
     61 O          31.9977  -48.4131  -53.5165 O.2       2 UNK        -0.5319 
     62 CA         34.2803  -48.0654  -52.8885 C.3       2 UNK         0.0286 
     63 CB         35.1383  -48.1172  -54.1638 C.3       2 UNK        -0.1963 
     64 N          33.8499  -46.6910  -52.6588 N.am      2 UNK        -0.4790 
     65 C          34.2679  -45.8757  -51.6820 C.2       1 UNK         0.5024 
     66 O          35.1883  -46.1547  -50.9123 O.2       1 UNK        -0.4888 
     67 H67        29.1825  -44.3278  -52.6009 H         1 UNK         0.0892 
     68 H68        29.7298  -45.7753  -53.4569 H         1 UNK         0.0892 
     69 H69        30.3406  -44.1879  -53.9291 H         1 UNK         0.0892 
     70 H70        32.4380  -43.8792  -53.2146 H         1 UNK         0.3107 
     71 H71        33.2064  -44.4701  -50.4892 H         1 UNK         0.0773 
     72 H72        35.0658  -43.4491  -52.6777 H         1 UNK         0.0680 
     73 H73        35.2493  -43.3090  -50.9598 H         1 UNK         0.0680 
     74 H74        33.6219  -40.0667  -53.4939 H         1 UNK         0.0650 
     75 H75        34.9956  -41.1224  -53.6591 H         1 UNK         0.0650 
     76 H76        34.7919  -43.2720  -54.8668 H         1 UNK         0.1397 
     77 H77        31.3900  -43.7308  -57.4197 H         1 UNK         0.1363 
     78 H78        31.3920  -40.7046  -54.3901 H         1 UNK         0.1355 
     79 H79        29.3695  -41.1018  -55.6360 H         1 UNK         0.0707 
     80 H80        29.9900  -41.0805  -57.2627 H         1 UNK         0.0707 
     81 H81        26.6383  -42.5828  -55.7486 H         1 UNK         0.1034 
     82 H82        27.9706  -42.6732  -54.6264 H         1 UNK         0.1034 
     83 H83        28.0493  -45.1295  -54.8504 H         1 UNK         0.0482 
     84 H84        25.4187  -46.5124  -54.3451 H         1 UNK         0.3460 
     85 H85        24.8857  -45.8229  -52.8324 H         1 UNK         0.3460 
     86 H86        27.2773  -46.1420  -56.5667 H         1 UNK         0.2989 
     87 H87        24.1803  -46.3255  -58.1620 H         1 UNK         0.0559 
     88 H88        26.5426  -44.9586  -59.5722 H         1 UNK         0.0848 
     89 H89        24.9332  -44.2689  -59.4192 H         1 UNK         0.0848 
     90 H90        25.1665  -45.7235  -60.3662 H         1 UNK         0.0848 
     91 H91        26.8646  -47.3717  -57.7069 H         1 UNK         0.3144 
     92 H92        26.2505  -50.2818  -59.7466 H         1 UNK         0.0727 
     93 H93        27.7575  -48.6338  -60.8701 H         1 UNK         0.0790 
     94 H94        28.6567  -49.9086  -60.0655 H         1 UNK         0.0790 
     95 H95        28.5543  -48.3076  -59.3380 H         1 UNK         0.0790 
     96 H96        28.0114  -49.9300  -57.5321 H         1 UNK         0.3215 
     97 H97        25.9051  -51.5566  -55.1288 H         1 UNK         0.0863 
     98 H98        27.8582  -53.0827  -55.0501 H         1 UNK         0.0808 
     99 H99        28.4328  -52.4793  -56.6024 H         1 UNK         0.0808 
    100 H100       26.9248  -53.3809  -56.5085 H         1 UNK         0.0808 
    101 H101       28.5953  -50.6224  -54.9596 H         1 UNK         0.3118 
    102 H102       27.8261  -47.2935  -53.8934 H         1 UNK         0.0546 
    103 H103       27.8073  -48.7209  -51.8775 H         1 UNK         0.0828 
    104 H104       29.4079  -48.0386  -52.1211 H         1 UNK         0.0828 
    105 H105       29.0924  -49.7222  -52.5344 H         1 UNK         0.0828 
    106 H106       30.3401  -48.4203  -54.3850 H         1 UNK         0.3005 
    107 H107       30.5626  -47.7019  -57.8912 H         1 UNK         0.1257 
    108 H108       32.1449  -46.7092  -55.4683 H         1 UNK         0.0775 
    109 H109       30.9657  -45.6881  -56.2405 H         1 UNK         0.0775 
    110 H110       34.4305  -45.4063  -56.0504 H         1 UNK         0.0840 
    111 H111       34.6087  -44.4759  -57.5172 H         1 UNK         0.0840 
    112 H112       32.3234  -48.9981  -56.0225 H         1 UNK         0.2987 
    113 H113       31.2647  -52.3368  -56.7325 H         1 UNK         0.0785 
    114 H114       32.8746  -51.7044  -58.5393 H         1 UNK         0.0798 
    115 H115       33.6876  -52.5431  -57.2292 H         1 UNK         0.0798 
    116 H116       33.8373  -50.7923  -57.3852 H         1 UNK         0.0798 
    117 H117       33.2750  -51.2908  -54.9963 H         1 UNK         0.3079 
    118 H118       31.2218  -50.7961  -52.1294 H         1 UNK         0.0794 
    119 H119       33.3085  -52.9557  -52.7489 H         1 UNK         0.0786 
    120 H120       31.6684  -53.2571  -52.1919 H         1 UNK         0.0786 
    121 H121       32.8025  -52.4218  -51.1454 H         1 UNK         0.0786 
    122 H122       34.0051  -50.5597  -52.3585 H         1 UNK         0.3032 
    123 H123       34.8555  -48.4352  -52.0365 H         1 UNK         0.1094 
    124 H124       35.4925  -49.1302  -54.3588 H         1 UNK         0.0794 
    125 H125       34.5803  -47.7902  -55.0423 H         1 UNK         0.0794 
    126 H126       36.0180  -47.4798  -54.0725 H         1 UNK         0.0794 
    127 H127       33.0204  -46.4266  -53.1730 H         1 UNK         0.3016 
@<TRIPOS>BOND
     1    1    2 1    
     2    1   67 1    
     3    1   68 1    
     4    1   69 1    
     5    2    3 2    
     6    2    4 am   BACKBONE|DICT|INTERRES
     7    4    5 1    
     8    4   70 1    
     9    5    6 1    
    10    5   65 1    
    11    5   71 1    
    12    6    7 1    
    13    6   72 1    
    14    6   73 1    
    15    7    8 1    
    16    8    9 1    
    17    8   74 1    
    18    8   75 1    
    19    9   10 ar   
    20    9   14 ar   
    21   10   11 ar   
    22   10   76 1    
    23   11   12 ar   
    24   11   48 1    
    25   12   13 ar   
    26   12   77 1    
    27   13   14 ar   
    28   13   15 1    
    29   14   78 1    
    30   15   16 1    
    31   15   79 1    
    32   15   80 1    
    33   16   17 1    
    34   17   18 1    
    35   17   81 1    
    36   17   82 1    
    37   18   19 1    
    38   18   22 1    
    39   18   83 1    
    40   19   20 am   BACKBONE|DICT|INTERRES
    41   19   21 2    
    42   20   84 1    
    43   20   85 1    
    44   22   23 am   BACKBONE|DICT|INTERRES
    45   22   86 1    
    46   23   24 2    
    47   23   25 1    
    48   25   26 1    
    49   25   27 1    
    50   25   87 1    
    51   26   88 1    
    52   26   89 1    
    53   26   90 1    
    54   27   28 am   BACKBONE|DICT|INTERRES
    55   27   91 1    
    56   28   29 2    
    57   28   30 1    
    58   30   31 1    
    59   30   32 1    
    60   30   92 1    
    61   31   93 1    
    62   31   94 1    
    63   31   95 1    
    64   32   33 am   BACKBONE|DICT|INTERRES
    65   32   96 1    
    66   33   34 2    
    67   33   35 1    
    68   35   36 1    
    69   35   37 1    
    70   35   97 1    
    71   36   98 1    
    72   36   99 1    
    73   36  100 1    
    74   37   38 am   BACKBONE|DICT|INTERRES
    75   37  101 1    
    76   38   39 2    
    77   38   40 1    
    78   40   41 1    
    79   40   42 1    
    80   40  102 1    
    81   41  103 1    
    82   41  104 1    
    83   41  105 1    
    84   42   43 am   BACKBONE|DICT|INTERRES
    85   42  106 1    
    86   43   44 2    
    87   43   45 1    
    88   45   46 1    
    89   45   49 1    
    90   45  107 1    
    91   46   47 1    
    92   46  108 1    
    93   46  109 1    
    94   47   48 1    
    95   48  110 1    
    96   48  111 1    
    97   49   50 am   BACKBONE|DICT|INTERRES
    98   49  112 1    
    99   50   51 2    
   100   50   52 1    
   101   52   53 1    
   102   52   54 1    
   103   52  113 1    
   104   53  114 1    
   105   53  115 1    
   106   53  116 1    
   107   54   55 am   BACKBONE|DICT|INTERRES
   108   54  117 1    
   109   55   56 2    
   110   55   57 1    
   111   57   58 1    
   112   57   59 1    
   113   57  118 1    
   114   58  119 1    
   115   58  120 1    
   116   58  121 1    
   117   59   60 am   BACKBONE|DICT|INTERRES
   118   59  122 1    
   119   60   61 2    
   120   60   62 1    
   121   62   63 1    
   122   62   64 1    
   123   62  123 1    
   124   63  124 1    
   125   63  125 1    
   126   63  126 1    
   127   64   65 am   BACKBONE|DICT|INTERRES
   128   64  127 1    
   129   65   66 2    
@<TRIPOS>SUBSTRUCTURE
     1 UNK         1 GROUP             0       ****    0 ROOT    
