@<TRIPOS>MOLECULE
3R134
127   129    1
SMALL
USER_CHARGES


@<TRIPOS>ATOM
      1 CA         34.3857  -44.8230  -59.4815 C.3       0 UNK        -0.1968 
      2 C          33.6356  -45.9550  -58.7958 C.2       0 UNK         0.4852 
      3 O          33.2517  -46.9213  -59.4547 O.2       0 UNK        -0.5359 
      4 N          33.4166  -45.8383  -57.4797 N.am      1 UNK        -0.4300 
      5 CA         32.7172  -46.8336  -56.6601 C.3       1 UNK         0.0863 
      6 C6         32.1944  -46.2256  -55.3359 C.3       11 UNK        -0.0953 
      7 S7         33.4925  -45.4907  -54.2750 S.3       11 UNK        -0.2369 
      8 C8         32.8605  -43.8034  -54.0143 C.3       11 UNK         0.0226 
      9 C9         31.5108  -43.8124  -53.3123 C.ar      11 UNK        -0.0699 
     10 C10        31.4156  -44.2051  -51.9746 C.ar      11 UNK        -0.0804 
     11 C11        30.1729  -44.2564  -51.3365 C.ar      11 UNK        -0.0871 
     12 C12        29.0222  -43.8873  -52.0398 C.ar      11 UNK        -0.1008 
     13 C13        29.1064  -43.4936  -53.3801 C.ar      11 UNK        -0.0735 
     14 C14        30.3537  -43.4520  -54.0077 C.ar      11 UNK        -0.0945 
     15 C15        27.8509  -43.1399  -54.1619 C.3       11 UNK         0.0169 
     16 S16        26.7877  -44.5997  -54.3412 S.3       11 UNK        -0.2669 
     17 C17        25.6642  -44.1053  -55.6883 C.3       11 UNK        -0.0850 
     18 CA         25.7858  -45.0748  -56.8973 C.3       10 UNK         0.0855 
     19 C          24.6160  -44.9436  -57.9219 C.2       10 UNK         0.5543 
     20 N          24.8151  -45.2572  -59.1976 N.am      10 UNK        -0.7343 
     21 O          23.4994  -44.5865  -57.5543 O.2       10 UNK        -0.5027 
     22 N          27.1296  -45.0809  -57.4999 N.am      10 UNK        -0.4495 
     23 C          27.6837  -44.0997  -58.2266 C.2       10 UNK         0.4903 
     24 O          27.1966  -42.9761  -58.3528 O.2       10 UNK        -0.4860 
     25 CA         28.9861  -44.4363  -58.9834 C.3       9 UNK         0.0227 
     26 CB         30.2028  -43.8844  -58.2242 C.3       9 UNK        -0.1964 
     27 N          29.1804  -45.8708  -59.2297 N.am      9 UNK        -0.4231 
     28 C          28.3508  -46.6715  -59.9161 C.2       9 UNK         0.5014 
     29 O          27.3510  -46.2733  -60.5164 O.2       9 UNK        -0.5270 
     30 CA         28.6391  -48.1847  -59.8637 C.3       8 UNK         0.0284 
     31 CB         30.1361  -48.5267  -59.7008 C.3       8 UNK        -0.1977 
     32 N          27.8417  -48.8663  -58.8324 N.am      8 UNK        -0.4342 
     33 C          27.7743  -48.5643  -57.5266 C.2       8 UNK         0.5039 
     34 O          28.3812  -47.6270  -56.9996 O.2       8 UNK        -0.5547 
     35 CA         26.8695  -49.4499  -56.6621 C.3       7 UNK         0.0281 
     36 CB         27.5435  -50.7975  -56.3476 C.3       7 UNK        -0.1963 
     37 N          26.5984  -48.7359  -55.4191 N.am      7 UNK        -0.4444 
     38 C          25.4873  -48.8242  -54.6809 C.2       7 UNK         0.5104 
     39 O          24.5562  -49.5873  -54.9439 O.2       7 UNK        -0.5100 
     40 CA         25.3873  -47.8788  -53.4644 C.3       6 UNK         0.0396 
     41 CB         24.4019  -48.3798  -52.3866 C.3       6 UNK        -0.1801 
     42 N          26.6934  -47.5307  -52.8841 N.am      6 UNK        -0.4747 
     43 C          27.5479  -48.3611  -52.2692 C.2       6 UNK         0.5012 
     44 O          27.3020  -49.5463  -52.0286 O.2       6 UNK        -0.5003 
     45 CA         28.9016  -47.7603  -51.8270 C.3       5 UNK         0.0782 
     46 C46        28.7894  -47.2043  -50.3843 C.3       11 UNK        -0.0868 
     47 S47        30.3547  -46.5159  -49.7433 S.3       11 UNK        -0.2515 
     48 C48        30.0826  -44.7202  -49.8908 C.3       11 UNK         0.0199 
     49 N          29.9758  -48.7524  -51.9584 N.am      5 UNK        -0.4607 
     50 C          30.3685  -49.2976  -53.1155 C.2       4 UNK         0.5031 
     51 O          29.9350  -48.9522  -54.2145 O.2       4 UNK        -0.5119 
     52 CA         31.4472  -50.3849  -53.0258 C.3       4 UNK         0.0263 
     53 CB         31.3169  -51.4282  -54.1511 C.3       4 UNK        -0.1967 
     54 N          32.7621  -49.7513  -53.0953 N.am      4 UNK        -0.4237 
     55 C          33.4618  -49.3465  -52.0252 C.2       3 UNK         0.4908 
     56 O          33.0787  -49.5318  -50.8687 O.2       3 UNK        -0.5102 
     57 CA         34.7846  -48.5819  -52.2476 C.3       3 UNK         0.0241 
     58 CB         35.9257  -49.1232  -51.3600 C.3       3 UNK        -0.1971 
     59 N          35.2049  -48.4622  -53.6498 N.am      3 UNK        -0.4139 
     60 C          35.6420  -49.4208  -54.4823 C.2       2 UNK         0.5016 
     61 O          35.8225  -50.5940  -54.1537 O.2       2 UNK        -0.5319 
     62 CA         35.8689  -48.9797  -55.9470 C.3       2 UNK         0.0286 
     63 CB         35.9099  -50.1675  -56.9323 C.3       2 UNK        -0.1963 
     64 N          34.8924  -47.9692  -56.3892 N.am      2 UNK        -0.4790 
     65 C          33.5541  -48.0986  -56.3830 C.2       1 UNK         0.5024 
     66 O          32.9757  -49.1461  -56.0998 O.2       1 UNK        -0.4888 
     67 H67        35.3011  -45.2011  -59.9360 H         1 UNK         0.0892 
     68 H68        33.7690  -44.3881  -60.2677 H         1 UNK         0.0892 
     69 H69        34.6551  -44.0296  -58.7844 H         1 UNK         0.0892 
     70 H70        33.7545  -45.0256  -56.9837 H         1 UNK         0.3107 
     71 H71        31.8421  -47.1653  -57.2204 H         1 UNK         0.0773 
     72 H72        31.4456  -45.4717  -55.5706 H         1 UNK         0.0680 
     73 H73        31.6627  -46.9762  -54.7495 H         1 UNK         0.0680 
     74 H74        32.7993  -43.2901  -54.9752 H         1 UNK         0.0650 
     75 H75        33.5778  -43.2454  -53.4111 H         1 UNK         0.0650 
     76 H76        32.3078  -44.4978  -51.4378 H         1 UNK         0.1397 
     77 H77        28.0560  -43.9264  -51.5554 H         1 UNK         0.1363 
     78 H78        30.4225  -43.1548  -55.0449 H         1 UNK         0.1355 
     79 H79        27.3036  -42.3484  -53.6482 H         1 UNK         0.0707 
     80 H80        28.1090  -42.7571  -55.1508 H         1 UNK         0.0707 
     81 H81        25.8513  -43.0750  -55.9939 H         1 UNK         0.1034 
     82 H82        24.6525  -44.1189  -55.2793 H         1 UNK         0.1034 
     83 H83        25.6584  -46.0833  -56.5028 H         1 UNK         0.0482 
     84 H84        25.7244  -45.5610  -59.5283 H         1 UNK         0.3460 
     85 H85        24.0486  -45.1790  -59.8467 H         1 UNK         0.3460 
     86 H86        27.6381  -45.9583  -57.4131 H         1 UNK         0.2989 
     87 H87        28.9340  -43.9424  -59.9556 H         1 UNK         0.0559 
     88 H88        30.3130  -44.3600  -57.2505 H         1 UNK         0.0848 
     89 H89        30.1030  -42.8116  -58.0527 H         1 UNK         0.0848 
     90 H90        31.1255  -44.0366  -58.7837 H         1 UNK         0.0848 
     91 H91        29.9287  -46.3180  -58.7208 H         1 UNK         0.3144 
     92 H92        28.3171  -48.5866  -60.8258 H         1 UNK         0.0727 
     93 H93        30.3126  -49.5877  -59.8772 H         1 UNK         0.0790 
     94 H94        30.5075  -48.3013  -58.7021 H         1 UNK         0.0790 
     95 H95        30.7502  -47.9782  -60.4167 H         1 UNK         0.0790 
     96 H96        27.2738  -49.6321  -59.1690 H         1 UNK         0.3215 
     97 H97        25.9337  -49.6178  -57.1996 H         1 UNK         0.0863 
     98 H98        28.4937  -50.6576  -55.8301 H         1 UNK         0.0808 
     99 H99        27.7473  -51.3605  -57.2590 H         1 UNK         0.0808 
    100 H100       26.9094  -51.4204  -55.7166 H         1 UNK         0.0808 
    101 H101       27.3185  -48.0663  -55.1719 H         1 UNK         0.3118 
    102 H102       24.9786  -46.9465  -53.8554 H         1 UNK         0.0546 
    103 H103       24.3533  -47.6928  -51.5420 H         1 UNK         0.0828 
    104 H104       24.6781  -49.3633  -52.0059 H         1 UNK         0.0828 
    105 H105       23.3927  -48.4645  -52.7912 H         1 UNK         0.0828 
    106 H106       26.9799  -46.5719  -53.0449 H         1 UNK         0.3005 
    107 H107       29.1468  -46.9344  -52.4997 H         1 UNK         0.1257 
    108 H108       28.4763  -47.9939  -49.6981 H         1 UNK         0.0775 
    109 H109       28.0140  -46.4379  -50.3303 H         1 UNK         0.0775 
    110 H110       29.1215  -44.4529  -49.4488 H         1 UNK         0.0840 
    111 H111       30.8405  -44.2015  -49.3019 H         1 UNK         0.0840 
    112 H112       30.4115  -49.0547  -51.0987 H         1 UNK         0.2987 
    113 H113       31.3306  -50.9146  -52.0776 H         1 UNK         0.0785 
    114 H114       32.0881  -52.1944  -54.0718 H         1 UNK         0.0798 
    115 H115       30.3504  -51.9311  -54.1004 H         1 UNK         0.0798 
    116 H116       31.3938  -50.9787  -55.1411 H         1 UNK         0.0798 
    117 H117       33.0987  -49.5365  -54.0273 H         1 UNK         0.3079 
    118 H118       34.5819  -47.5604  -51.9219 H         1 UNK         0.0794 
    119 H119       36.8465  -48.5590  -51.5080 H         1 UNK         0.0786 
    120 H120       36.1373  -50.1731  -51.5639 H         1 UNK         0.0786 
    121 H121       35.6683  -49.0470  -50.3028 H         1 UNK         0.0786 
    122 H122       35.0724  -47.5417  -54.0483 H         1 UNK         0.3032 
    123 H123       36.8490  -48.4999  -55.9678 H         1 UNK         0.1094 
    124 H124       36.0744  -49.8287  -57.9551 H         1 UNK         0.0794 
    125 H125       36.7214  -50.8530  -56.6846 H         1 UNK         0.0794 
    126 H126       34.9837  -50.7427  -56.9144 H         1 UNK         0.0794 
    127 H127       35.2721  -47.0650  -56.6342 H         1 UNK         0.3016 
@<TRIPOS>BOND
     1    1    2 1    
     2    1   67 1    
     3    1   68 1    
     4    1   69 1    
     5    2    3 2    
     6    2    4 am   BACKBONE|DICT|INTERRES
     7    4    5 1    
     8    4   70 1    
     9    5    6 1    
    10    5   65 1    
    11    5   71 1    
    12    6    7 1    
    13    6   72 1    
    14    6   73 1    
    15    7    8 1    
    16    8    9 1    
    17    8   74 1    
    18    8   75 1    
    19    9   10 ar   
    20    9   14 ar   
    21   10   11 ar   
    22   10   76 1    
    23   11   12 ar   
    24   11   48 1    
    25   12   13 ar   
    26   12   77 1    
    27   13   14 ar   
    28   13   15 1    
    29   14   78 1    
    30   15   16 1    
    31   15   79 1    
    32   15   80 1    
    33   16   17 1    
    34   17   18 1    
    35   17   81 1    
    36   17   82 1    
    37   18   19 1    
    38   18   22 1    
    39   18   83 1    
    40   19   20 am   BACKBONE|DICT|INTERRES
    41   19   21 2    
    42   20   84 1    
    43   20   85 1    
    44   22   23 am   BACKBONE|DICT|INTERRES
    45   22   86 1    
    46   23   24 2    
    47   23   25 1    
    48   25   26 1    
    49   25   27 1    
    50   25   87 1    
    51   26   88 1    
    52   26   89 1    
    53   26   90 1    
    54   27   28 am   BACKBONE|DICT|INTERRES
    55   27   91 1    
    56   28   29 2    
    57   28   30 1    
    58   30   31 1    
    59   30   32 1    
    60   30   92 1    
    61   31   93 1    
    62   31   94 1    
    63   31   95 1    
    64   32   33 am   BACKBONE|DICT|INTERRES
    65   32   96 1    
    66   33   34 2    
    67   33   35 1    
    68   35   36 1    
    69   35   37 1    
    70   35   97 1    
    71   36   98 1    
    72   36   99 1    
    73   36  100 1    
    74   37   38 am   BACKBONE|DICT|INTERRES
    75   37  101 1    
    76   38   39 2    
    77   38   40 1    
    78   40   41 1    
    79   40   42 1    
    80   40  102 1    
    81   41  103 1    
    82   41  104 1    
    83   41  105 1    
    84   42   43 am   BACKBONE|DICT|INTERRES
    85   42  106 1    
    86   43   44 2    
    87   43   45 1    
    88   45   46 1    
    89   45   49 1    
    90   45  107 1    
    91   46   47 1    
    92   46  108 1    
    93   46  109 1    
    94   47   48 1    
    95   48  110 1    
    96   48  111 1    
    97   49   50 am   BACKBONE|DICT|INTERRES
    98   49  112 1    
    99   50   51 2    
   100   50   52 1    
   101   52   53 1    
   102   52   54 1    
   103   52  113 1    
   104   53  114 1    
   105   53  115 1    
   106   53  116 1    
   107   54   55 am   BACKBONE|DICT|INTERRES
   108   54  117 1    
   109   55   56 2    
   110   55   57 1    
   111   57   58 1    
   112   57   59 1    
   113   57  118 1    
   114   58  119 1    
   115   58  120 1    
   116   58  121 1    
   117   59   60 am   BACKBONE|DICT|INTERRES
   118   59  122 1    
   119   60   61 2    
   120   60   62 1    
   121   62   63 1    
   122   62   64 1    
   123   62  123 1    
   124   63  124 1    
   125   63  125 1    
   126   63  126 1    
   127   64   65 am   BACKBONE|DICT|INTERRES
   128   64  127 1    
   129   65   66 2    
@<TRIPOS>SUBSTRUCTURE
     1 UNK         1 GROUP             0       ****    0 ROOT    
