@<TRIPOS>MOLECULE
3R134
127   129    1
SMALL
USER_CHARGES


@<TRIPOS>ATOM
      1 CA         30.2629  -44.7403  -52.5687 C.3       0 UNK        -0.1968 
      2 C          31.5417  -44.9010  -51.7590 C.2       0 UNK         0.4852 
      3 O          31.4778  -45.2774  -50.5884 O.2       0 UNK        -0.5359 
      4 N          32.7010  -44.6144  -52.3699 N.am      1 UNK        -0.4300 
      5 CA         34.0276  -44.7129  -51.7452 C.3       1 UNK         0.0863 
      6 C6         35.1494  -44.0369  -52.5834 C.3       11 UNK        -0.0953 
      7 S7         35.1619  -42.2112  -52.7683 S.3       11 UNK        -0.2369 
      8 C8         33.4317  -41.6343  -52.9058 C.3       11 UNK         0.0226 
      9 C9         32.6605  -42.0470  -54.1642 C.ar      11 UNK        -0.0699 
     10 C10        33.1831  -42.9100  -55.1391 C.ar      11 UNK        -0.0804 
     11 C11        32.3918  -43.3494  -56.2020 C.ar      11 UNK        -0.0871 
     12 C12        31.0984  -42.8494  -56.3461 C.ar      11 UNK        -0.1008 
     13 C13        30.5696  -41.9665  -55.4047 C.ar      11 UNK        -0.0735 
     14 C14        31.3506  -41.5756  -54.3134 C.ar      11 UNK        -0.0945 
     15 C15        29.1457  -41.4654  -55.5700 C.3       11 UNK         0.0169 
     16 S16        27.9419  -42.7669  -55.1459 S.3       11 UNK        -0.2669 
     17 C17        26.6749  -42.5222  -56.4431 C.3       11 UNK        -0.0850 
     18 CA         26.6430  -43.6351  -57.5305 C.3       10 UNK         0.0855 
     19 C          27.9419  -43.7435  -58.3724 C.2       10 UNK         0.5543 
     20 N          28.2892  -42.6973  -59.1099 N.am      10 UNK        -0.7343 
     21 O          28.6384  -44.7570  -58.3678 O.2       10 UNK        -0.5027 
     22 N          26.2446  -44.9378  -56.9899 N.am      10 UNK        -0.4495 
     23 C          24.9850  -45.3107  -56.7424 C.2       10 UNK         0.4903 
     24 O          24.0126  -44.5643  -56.8712 O.2       10 UNK        -0.4860 
     25 CA         24.7840  -46.7664  -56.2851 C.3       9 UNK         0.0227 
     26 CB         23.3085  -47.2178  -56.3087 C.3       9 UNK        -0.1964 
     27 N          25.6323  -47.7051  -57.0245 N.am      9 UNK        -0.4231 
     28 C          25.6311  -47.9730  -58.3393 C.2       9 UNK         0.5014 
     29 O          24.8559  -47.4647  -59.1506 O.2       9 UNK        -0.5270 
     30 CA         26.6815  -48.9835  -58.8418 C.3       8 UNK         0.0284 
     31 CB         27.8809  -48.2450  -59.4577 C.3       8 UNK        -0.1977 
     32 N          27.1583  -49.8950  -57.7955 N.am      8 UNK        -0.4342 
     33 C          26.4097  -50.8496  -57.2231 C.2       8 UNK         0.5039 
     34 O          25.2711  -51.1405  -57.5918 O.2       8 UNK        -0.5547 
     35 CA         27.0160  -51.5786  -56.0129 C.3       7 UNK         0.0281 
     36 CB         27.9310  -52.7248  -56.4726 C.3       7 UNK        -0.1963 
     37 N          27.7507  -50.6791  -55.1173 N.am      7 UNK        -0.4444 
     38 C          27.1949  -49.6957  -54.3934 C.2       7 UNK         0.5104 
     39 O          25.9858  -49.4718  -54.3584 O.2       7 UNK        -0.5100 
     40 CA         28.1471  -48.7740  -53.6102 C.3       6 UNK         0.0396 
     41 CB         28.5616  -49.4130  -52.2767 C.3       6 UNK        -0.1801 
     42 N          29.3397  -48.4105  -54.3772 N.am      6 UNK        -0.4747 
     43 C          29.3301  -47.6758  -55.5003 C.2       6 UNK         0.5012 
     44 O          28.3140  -47.1755  -55.9821 O.2       6 UNK        -0.5003 
     45 CA         30.6827  -47.5007  -56.2171 C.3       5 UNK         0.0782 
     46 C46        31.4658  -46.3313  -55.5801 C.3       11 UNK        -0.0868 
     47 S47        33.1084  -46.0326  -56.3259 S.3       11 UNK        -0.2515 
     48 C48        32.9025  -44.4185  -57.1579 C.3       11 UNK         0.0199 
     49 N          31.4436  -48.7529  -56.2140 N.am      5 UNK        -0.4607 
     50 C          31.0941  -49.8588  -56.8829 C.2       4 UNK         0.5031 
     51 O          30.0984  -49.9384  -57.6022 O.2       4 UNK        -0.5119 
     52 CA         31.9835  -51.0962  -56.6746 C.3       4 UNK         0.0263 
     53 CB         33.2469  -51.0085  -57.5454 C.3       4 UNK        -0.1967 
     54 N          32.3626  -51.2879  -55.2711 N.am      4 UNK        -0.4237 
     55 C          31.4941  -51.5676  -54.2883 C.2       3 UNK         0.4908 
     56 O          30.2913  -51.7417  -54.4713 O.2       3 UNK        -0.5102 
     57 CA         32.0418  -51.6263  -52.8522 C.3       3 UNK         0.0241 
     58 CB         32.5315  -53.0456  -52.5234 C.3       3 UNK        -0.1971 
     59 N          33.1083  -50.6605  -52.5684 N.am      3 UNK        -0.4139 
     60 C          33.0135  -49.3316  -52.7143 C.2       2 UNK         0.5016 
     61 O          32.0192  -48.7531  -53.1642 O.2       2 UNK        -0.5319 
     62 CA         34.2573  -48.5255  -52.3248 C.3       2 UNK         0.0286 
     63 CB         35.4103  -48.7704  -53.3163 C.3       2 UNK        -0.1963 
     64 N          33.9310  -47.1039  -52.3240 N.am      2 UNK        -0.4790 
     65 C          34.4341  -46.1833  -51.4929 C.2       1 UNK         0.5024 
     66 O          35.2206  -46.4457  -50.5816 O.2       1 UNK        -0.4888 
     67 H67        29.5583  -44.1016  -52.0369 H         1 UNK         0.0892 
     68 H68        30.4487  -44.2894  -53.5424 H         1 UNK         0.0892 
     69 H69        29.7918  -45.7105  -52.7258 H         1 UNK         0.0892 
     70 H70        32.6909  -44.2705  -53.3208 H         1 UNK         0.3107 
     71 H71        33.9807  -44.2172  -50.7733 H         1 UNK         0.0773 
     72 H72        35.1990  -44.4906  -53.5739 H         1 UNK         0.0680 
     73 H73        36.1189  -44.2626  -52.1335 H         1 UNK         0.0680 
     74 H74        33.4561  -40.5443  -52.8728 H         1 UNK         0.0650 
     75 H75        32.8814  -41.9439  -52.0168 H         1 UNK         0.0650 
     76 H76        34.1905  -43.2873  -55.0696 H         1 UNK         0.1397 
     77 H77        30.4838  -43.1807  -57.1704 H         1 UNK         0.1363 
     78 H78        30.9320  -40.9121  -53.5687 H         1 UNK         0.1355 
     79 H79        29.0146  -41.1389  -56.6024 H         1 UNK         0.0707 
     80 H80        28.9631  -40.5901  -54.9447 H         1 UNK         0.0707 
     81 H81        25.7040  -42.4736  -55.9482 H         1 UNK         0.1034 
     82 H82        26.7951  -41.5428  -56.9075 H         1 UNK         0.1034 
     83 H83        25.8755  -43.3555  -58.2553 H         1 UNK         0.0482 
     84 H84        29.1248  -42.7532  -59.6701 H         1 UNK         0.3460 
     85 H85        27.7213  -41.8657  -59.1433 H         1 UNK         0.3460 
     86 H86        27.0015  -45.6053  -56.8770 H         1 UNK         0.2989 
     87 H87        25.1241  -46.8078  -55.2494 H         1 UNK         0.0559 
     88 H88        22.6984  -46.5937  -55.6548 H         1 UNK         0.0848 
     89 H89        23.2055  -48.2464  -55.9626 H         1 UNK         0.0848 
     90 H90        22.8805  -47.1553  -57.3096 H         1 UNK         0.0848 
     91 H91        26.3662  -48.1338  -56.4742 H         1 UNK         0.3144 
     92 H92        26.2118  -49.5840  -59.6236 H         1 UNK         0.0727 
     93 H93        28.3953  -47.6271  -58.7210 H         1 UNK         0.0790 
     94 H94        27.5614  -47.5859  -60.2660 H         1 UNK         0.0790 
     95 H95        28.6068  -48.9431  -59.8750 H         1 UNK         0.0790 
     96 H96        28.1228  -49.7824  -57.4939 H         1 UNK         0.3215 
     97 H97        26.1912  -52.0115  -55.4427 H         1 UNK         0.0863 
     98 H98        28.2895  -53.3090  -55.6250 H         1 UNK         0.0808 
     99 H99        28.8014  -52.3549  -57.0153 H         1 UNK         0.0808 
    100 H100       27.3985  -53.4087  -57.1350 H         1 UNK         0.0808 
    101 H101       28.7493  -50.8519  -55.0195 H         1 UNK         0.3118 
    102 H102       27.6081  -47.8507  -53.3870 H         1 UNK         0.0546 
    103 H103       29.0718  -50.3639  -52.4257 H         1 UNK         0.0828 
    104 H104       27.6890  -49.6077  -51.6521 H         1 UNK         0.0828 
    105 H105       29.2274  -48.7597  -51.7120 H         1 UNK         0.0828 
    106 H106       30.2350  -48.7417  -54.0264 H         1 UNK         0.3005 
    107 H107       30.4675  -47.2405  -57.2563 H         1 UNK         0.1257 
    108 H108       30.8594  -45.4286  -55.6367 H         1 UNK         0.0775 
    109 H109       31.6259  -46.5157  -54.5179 H         1 UNK         0.0775 
    110 H110       33.8606  -44.1057  -57.5751 H         1 UNK         0.0840 
    111 H111       32.2236  -44.5418  -58.0035 H         1 UNK         0.0840 
    112 H112       32.2481  -48.7801  -55.6051 H         1 UNK         0.2987 
    113 H113       31.4112  -51.9713  -56.9904 H         1 UNK         0.0785 
    114 H114       32.9860  -50.8813  -58.5971 H         1 UNK         0.0798 
    115 H115       33.8448  -51.9169  -57.4696 H         1 UNK         0.0798 
    116 H116       33.8785  -50.1652  -57.2624 H         1 UNK         0.0798 
    117 H117       33.3360  -51.1657  -55.0341 H         1 UNK         0.3079 
    118 H118       31.2135  -51.3925  -52.1812 H         1 UNK         0.0794 
    119 H119       32.8161  -53.1351  -51.4748 H         1 UNK         0.0786 
    120 H120       33.3918  -53.3287  -53.1313 H         1 UNK         0.0786 
    121 H121       31.7467  -53.7812  -52.7066 H         1 UNK         0.0786 
    122 H122       33.9678  -51.0431  -52.2010 H         1 UNK         0.3032 
    123 H123       34.5578  -48.8377  -51.3218 H         1 UNK         0.1094 
    124 H124       35.1325  -48.4894  -54.3333 H         1 UNK         0.0794 
    125 H125       36.2942  -48.1937  -53.0432 H         1 UNK         0.0794 
    126 H126       35.7078  -49.8194  -53.3346 H         1 UNK         0.0794 
    127 H127       33.2173  -46.8348  -52.9875 H         1 UNK         0.3016 
@<TRIPOS>BOND
     1    1    2 1    
     2    1   67 1    
     3    1   68 1    
     4    1   69 1    
     5    2    3 2    
     6    2    4 am   BACKBONE|DICT|INTERRES
     7    4    5 1    
     8    4   70 1    
     9    5    6 1    
    10    5   65 1    
    11    5   71 1    
    12    6    7 1    
    13    6   72 1    
    14    6   73 1    
    15    7    8 1    
    16    8    9 1    
    17    8   74 1    
    18    8   75 1    
    19    9   10 ar   
    20    9   14 ar   
    21   10   11 ar   
    22   10   76 1    
    23   11   12 ar   
    24   11   48 1    
    25   12   13 ar   
    26   12   77 1    
    27   13   14 ar   
    28   13   15 1    
    29   14   78 1    
    30   15   16 1    
    31   15   79 1    
    32   15   80 1    
    33   16   17 1    
    34   17   18 1    
    35   17   81 1    
    36   17   82 1    
    37   18   19 1    
    38   18   22 1    
    39   18   83 1    
    40   19   20 am   BACKBONE|DICT|INTERRES
    41   19   21 2    
    42   20   84 1    
    43   20   85 1    
    44   22   23 am   BACKBONE|DICT|INTERRES
    45   22   86 1    
    46   23   24 2    
    47   23   25 1    
    48   25   26 1    
    49   25   27 1    
    50   25   87 1    
    51   26   88 1    
    52   26   89 1    
    53   26   90 1    
    54   27   28 am   BACKBONE|DICT|INTERRES
    55   27   91 1    
    56   28   29 2    
    57   28   30 1    
    58   30   31 1    
    59   30   32 1    
    60   30   92 1    
    61   31   93 1    
    62   31   94 1    
    63   31   95 1    
    64   32   33 am   BACKBONE|DICT|INTERRES
    65   32   96 1    
    66   33   34 2    
    67   33   35 1    
    68   35   36 1    
    69   35   37 1    
    70   35   97 1    
    71   36   98 1    
    72   36   99 1    
    73   36  100 1    
    74   37   38 am   BACKBONE|DICT|INTERRES
    75   37  101 1    
    76   38   39 2    
    77   38   40 1    
    78   40   41 1    
    79   40   42 1    
    80   40  102 1    
    81   41  103 1    
    82   41  104 1    
    83   41  105 1    
    84   42   43 am   BACKBONE|DICT|INTERRES
    85   42  106 1    
    86   43   44 2    
    87   43   45 1    
    88   45   46 1    
    89   45   49 1    
    90   45  107 1    
    91   46   47 1    
    92   46  108 1    
    93   46  109 1    
    94   47   48 1    
    95   48  110 1    
    96   48  111 1    
    97   49   50 am   BACKBONE|DICT|INTERRES
    98   49  112 1    
    99   50   51 2    
   100   50   52 1    
   101   52   53 1    
   102   52   54 1    
   103   52  113 1    
   104   53  114 1    
   105   53  115 1    
   106   53  116 1    
   107   54   55 am   BACKBONE|DICT|INTERRES
   108   54  117 1    
   109   55   56 2    
   110   55   57 1    
   111   57   58 1    
   112   57   59 1    
   113   57  118 1    
   114   58  119 1    
   115   58  120 1    
   116   58  121 1    
   117   59   60 am   BACKBONE|DICT|INTERRES
   118   59  122 1    
   119   60   61 2    
   120   60   62 1    
   121   62   63 1    
   122   62   64 1    
   123   62  123 1    
   124   63  124 1    
   125   63  125 1    
   126   63  126 1    
   127   64   65 am   BACKBONE|DICT|INTERRES
   128   64  127 1    
   129   65   66 2    
@<TRIPOS>SUBSTRUCTURE
     1 UNK         1 GROUP             0       ****    0 ROOT    
