@<TRIPOS>MOLECULE
3R134
127   129    1
SMALL
USER_CHARGES


@<TRIPOS>ATOM
      1 CA         35.9256  -44.7090  -57.2234 C.3       0 UNK        -0.1968 
      2 C          35.2680  -45.1916  -55.9398 C.2       0 UNK         0.4852 
      3 O          34.5925  -46.2211  -55.9485 O.2       0 UNK        -0.5359 
      4 N          35.4783  -44.4712  -54.8284 N.am      1 UNK        -0.4300 
      5 CA         34.8589  -44.7267  -53.5183 C.3       1 UNK         0.0863 
      6 C6         35.0613  -43.5457  -52.5320 C.3       11 UNK        -0.0953 
      7 S7         34.4320  -41.9520  -53.1652 S.3       11 UNK        -0.2369 
      8 C8         32.7804  -41.8575  -52.3969 C.3       11 UNK         0.0226 
      9 C9         31.8242  -42.8607  -53.0227 C.ar      11 UNK        -0.0699 
     10 C10        31.5867  -44.0914  -52.4039 C.ar      11 UNK        -0.0804 
     11 C11        30.7922  -45.0565  -53.0290 C.ar      11 UNK        -0.0871 
     12 C12        30.1919  -44.7650  -54.2568 C.ar      11 UNK        -0.1008 
     13 C13        30.4037  -43.5282  -54.8737 C.ar      11 UNK        -0.0735 
     14 C14        31.2188  -42.5790  -54.2507 C.ar      11 UNK        -0.0945 
     15 C15        29.8078  -43.2398  -56.2421 C.3       11 UNK         0.0169 
     16 S16        28.2181  -42.3640  -56.1213 S.3       11 UNK        -0.2669 
     17 C17        27.8051  -42.1994  -57.8938 C.3       11 UNK        -0.0850 
     18 CA         26.3931  -42.7279  -58.2611 C.3       10 UNK         0.0855 
     19 C          26.1385  -42.5246  -59.7812 C.2       10 UNK         0.5543 
     20 N          25.4786  -41.4393  -60.1615 N.am      10 UNK        -0.7343 
     21 O          26.5799  -43.3139  -60.6146 O.2       10 UNK        -0.5027 
     22 N          26.1970  -44.1160  -57.8131 N.am      10 UNK        -0.4495 
     23 C          25.0980  -44.8622  -57.9798 C.2       10 UNK         0.4903 
     24 O          24.0746  -44.4593  -58.5359 O.2       10 UNK        -0.4860 
     25 CA         25.1444  -46.2947  -57.4078 C.3       9 UNK         0.0227 
     26 CB         23.8880  -47.1180  -57.7493 C.3       9 UNK        -0.1964 
     27 N          26.3275  -47.0522  -57.8270 N.am      9 UNK        -0.4231 
     28 C          27.5630  -46.9138  -57.3329 C.2       9 UNK         0.5014 
     29 O          27.8668  -46.0620  -56.4985 O.2       9 UNK        -0.5270 
     30 CA         28.6200  -47.9109  -57.8377 C.3       8 UNK         0.0284 
     31 CB         30.0319  -47.5997  -57.3045 C.3       8 UNK        -0.1977 
     32 N          28.2582  -49.2732  -57.4491 N.am      8 UNK        -0.4342 
     33 C          27.3639  -50.0485  -58.0758 C.2       8 UNK         0.5039 
     34 O          26.7702  -49.7125  -59.1018 O.2       8 UNK        -0.5547 
     35 CA         27.0402  -51.3918  -57.4111 C.3       7 UNK         0.0281 
     36 CB         28.2394  -52.3536  -57.4800 C.3       7 UNK        -0.1963 
     37 N          26.6566  -51.1757  -56.0162 N.am      7 UNK        -0.4444 
     38 C          25.4012  -50.9634  -55.5954 C.2       7 UNK         0.5104 
     39 O          24.4131  -51.0121  -56.3282 O.2       7 UNK        -0.5100 
     40 CA         25.2100  -50.6415  -54.1006 C.3       6 UNK         0.0396 
     41 CB         24.9480  -51.9293  -53.3038 C.3       6 UNK        -0.1801 
     42 N          26.3587  -49.9400  -53.5230 N.am      6 UNK        -0.4747 
     43 C          26.6844  -48.6657  -53.7895 C.2       6 UNK         0.5012 
     44 O          25.9625  -47.9085  -54.4347 O.2       6 UNK        -0.5003 
     45 CA         28.0459  -48.1549  -53.2654 C.3       5 UNK         0.0782 
     46 C46        27.8393  -47.1206  -52.1253 C.3       11 UNK        -0.0868 
     47 S47        29.3224  -46.5686  -51.2001 S.3       11 UNK        -0.2515 
     48 C48        30.6705  -46.4434  -52.4209 C.3       11 UNK         0.0199 
     49 N          28.9641  -49.2445  -52.8933 N.am      5 UNK        -0.4607 
     50 C          29.5390  -50.0732  -53.7736 C.2       4 UNK         0.5031 
     51 O          29.2584  -50.0928  -54.9736 O.2       4 UNK        -0.5119 
     52 CA         30.5818  -51.0631  -53.2378 C.3       4 UNK         0.0263 
     53 CB         30.0633  -52.5059  -53.3544 C.3       4 UNK        -0.1967 
     54 N          31.8271  -50.9270  -53.9957 N.am      4 UNK        -0.4237 
     55 C          32.6602  -49.8848  -53.8773 C.2       3 UNK         0.4908 
     56 O          32.5187  -48.9958  -53.0360 O.2       3 UNK        -0.5102 
     57 CA         33.8114  -49.8074  -54.8956 C.3       3 UNK         0.0241 
     58 CB         33.2859  -49.3115  -56.2533 C.3       3 UNK        -0.1971 
     59 N          34.8764  -48.9073  -54.4438 N.am      3 UNK        -0.4139 
     60 C          35.7445  -49.1925  -53.4607 C.2       2 UNK         0.5016 
     61 O          35.8071  -50.2920  -52.9074 O.2       2 UNK        -0.5319 
     62 CA         36.7219  -48.0843  -53.0175 C.3       2 UNK         0.0286 
     63 CB         38.1268  -48.3467  -53.5850 C.3       2 UNK        -0.1963 
     64 N          36.2974  -46.7376  -53.4074 N.am      2 UNK        -0.4790 
     65 C          35.2759  -46.0630  -52.8592 C.2       1 UNK         0.5024 
     66 O          34.6602  -46.4611  -51.8701 O.2       1 UNK        -0.4888 
     67 H67        35.1660  -44.5052  -57.9776 H         1 UNK         0.0892 
     68 H68        36.5034  -43.7979  -57.0689 H         1 UNK         0.0892 
     69 H69        36.5955  -45.4751  -57.6127 H         1 UNK         0.0892 
     70 H70        36.0438  -43.6356  -54.8795 H         1 UNK         0.3107 
     71 H71        33.7912  -44.8272  -53.7124 H         1 UNK         0.0773 
     72 H72        34.5792  -43.7512  -51.5744 H         1 UNK         0.0680 
     73 H73        36.1226  -43.4206  -52.3097 H         1 UNK         0.0680 
     74 H74        32.3874  -40.8484  -52.5292 H         1 UNK         0.0650 
     75 H75        32.8629  -42.0147  -51.3203 H         1 UNK         0.0650 
     76 H76        32.0686  -44.3227  -51.4636 H         1 UNK         0.1397 
     77 H77        29.5868  -45.5119  -54.7492 H         1 UNK         0.1363 
     78 H78        31.4080  -41.6315  -54.7369 H         1 UNK         0.1355 
     79 H79        30.5055  -42.6380  -56.8268 H         1 UNK         0.0707 
     80 H80        29.6723  -44.1701  -56.7947 H         1 UNK         0.0707 
     81 H81        27.8885  -41.1418  -58.1522 H         1 UNK         0.1034 
     82 H82        28.5609  -42.7106  -58.4937 H         1 UNK         0.1034 
     83 H83        25.6609  -42.1299  -57.7150 H         1 UNK         0.0482 
     84 H84        25.1229  -40.7812  -59.4854 H         1 UNK         0.3460 
     85 H85        25.3198  -41.2814  -61.1445 H         1 UNK         0.3460 
     86 H86        26.9734  -44.5401  -57.3136 H         1 UNK         0.2989 
     87 H87        25.1764  -46.1885  -56.3220 H         1 UNK         0.0559 
     88 H88        22.9842  -46.6223  -57.3928 H         1 UNK         0.0848 
     89 H89        23.9204  -48.1013  -57.2785 H         1 UNK         0.0848 
     90 H90        23.7805  -47.2630  -58.8249 H         1 UNK         0.0848 
     91 H91        26.1815  -47.7978  -58.4999 H         1 UNK         0.3144 
     92 H92        28.6492  -47.8407  -58.9272 H         1 UNK         0.0727 
     93 H93        30.0827  -47.6755  -56.2176 H         1 UNK         0.0790 
     94 H94        30.3406  -46.5896  -57.5763 H         1 UNK         0.0790 
     95 H95        30.7687  -48.2855  -57.7219 H         1 UNK         0.0790 
     96 H96        28.6678  -49.6111  -56.5782 H         1 UNK         0.3215 
     97 H97        26.2112  -51.8490  -57.9564 H         1 UNK         0.0863 
     98 H98        27.9908  -53.3237  -57.0495 H         1 UNK         0.0808 
     99 H99        29.1103  -51.9679  -56.9491 H         1 UNK         0.0808 
    100 H100       28.5391  -52.5263  -58.5145 H         1 UNK         0.0808 
    101 H101       27.4142  -51.0505  -55.3566 H         1 UNK         0.3118 
    102 H102       24.3316  -49.9990  -54.0077 H         1 UNK         0.0546 
    103 H103       25.7957  -52.6142  -53.3482 H         1 UNK         0.0828 
    104 H104       24.0801  -52.4604  -53.6975 H         1 UNK         0.0828 
    105 H105       24.7440  -51.7131  -52.2550 H         1 UNK         0.0828 
    106 H106       26.9904  -50.4825  -52.9519 H         1 UNK         0.3005 
    107 H107       28.4934  -47.6282  -54.1114 H         1 UNK         0.1257 
    108 H108       27.1475  -47.5206  -51.3812 H         1 UNK         0.0775 
    109 H109       27.3553  -46.2280  -52.5270 H         1 UNK         0.0775 
    110 H110       31.6047  -46.6886  -51.9124 H         1 UNK         0.0840 
    111 H111       30.5787  -47.1850  -53.2110 H         1 UNK         0.0840 
    112 H112       29.2398  -49.2797  -51.9219 H         1 UNK         0.2987 
    113 H113       30.7830  -50.8487  -52.1858 H         1 UNK         0.0785 
    114 H114       29.1429  -52.6378  -52.7840 H         1 UNK         0.0798 
    115 H115       30.7890  -53.2200  -52.9646 H         1 UNK         0.0798 
    116 H116       29.8475  -52.7788  -54.3885 H         1 UNK         0.0798 
    117 H117       31.9809  -51.5962  -54.7359 H         1 UNK         0.3079 
    118 H118       34.2320  -50.8073  -55.0225 H         1 UNK         0.0794 
    119 H119       32.5253  -49.9826  -56.6543 H         1 UNK         0.0786 
    120 H120       34.0860  -49.2504  -56.9914 H         1 UNK         0.0786 
    121 H121       32.8347  -48.3217  -56.1690 H         1 UNK         0.0786 
    122 H122       34.8641  -47.9685  -54.8292 H         1 UNK         0.3032 
    123 H123       36.7783  -48.1235  -51.9271 H         1 UNK         0.1094 
    124 H124       38.8465  -47.6138  -53.2198 H         1 UNK         0.0794 
    125 H125       38.4906  -49.3311  -53.2865 H         1 UNK         0.0794 
    126 H126       38.1349  -48.3137  -54.6753 H         1 UNK         0.0794 
    127 H127       36.7476  -46.3336  -54.2160 H         1 UNK         0.3016 
@<TRIPOS>BOND
     1    1    2 1    
     2    1   67 1    
     3    1   68 1    
     4    1   69 1    
     5    2    3 2    
     6    2    4 am   BACKBONE|DICT|INTERRES
     7    4    5 1    
     8    4   70 1    
     9    5    6 1    
    10    5   65 1    
    11    5   71 1    
    12    6    7 1    
    13    6   72 1    
    14    6   73 1    
    15    7    8 1    
    16    8    9 1    
    17    8   74 1    
    18    8   75 1    
    19    9   10 ar   
    20    9   14 ar   
    21   10   11 ar   
    22   10   76 1    
    23   11   12 ar   
    24   11   48 1    
    25   12   13 ar   
    26   12   77 1    
    27   13   14 ar   
    28   13   15 1    
    29   14   78 1    
    30   15   16 1    
    31   15   79 1    
    32   15   80 1    
    33   16   17 1    
    34   17   18 1    
    35   17   81 1    
    36   17   82 1    
    37   18   19 1    
    38   18   22 1    
    39   18   83 1    
    40   19   20 am   BACKBONE|DICT|INTERRES
    41   19   21 2    
    42   20   84 1    
    43   20   85 1    
    44   22   23 am   BACKBONE|DICT|INTERRES
    45   22   86 1    
    46   23   24 2    
    47   23   25 1    
    48   25   26 1    
    49   25   27 1    
    50   25   87 1    
    51   26   88 1    
    52   26   89 1    
    53   26   90 1    
    54   27   28 am   BACKBONE|DICT|INTERRES
    55   27   91 1    
    56   28   29 2    
    57   28   30 1    
    58   30   31 1    
    59   30   32 1    
    60   30   92 1    
    61   31   93 1    
    62   31   94 1    
    63   31   95 1    
    64   32   33 am   BACKBONE|DICT|INTERRES
    65   32   96 1    
    66   33   34 2    
    67   33   35 1    
    68   35   36 1    
    69   35   37 1    
    70   35   97 1    
    71   36   98 1    
    72   36   99 1    
    73   36  100 1    
    74   37   38 am   BACKBONE|DICT|INTERRES
    75   37  101 1    
    76   38   39 2    
    77   38   40 1    
    78   40   41 1    
    79   40   42 1    
    80   40  102 1    
    81   41  103 1    
    82   41  104 1    
    83   41  105 1    
    84   42   43 am   BACKBONE|DICT|INTERRES
    85   42  106 1    
    86   43   44 2    
    87   43   45 1    
    88   45   46 1    
    89   45   49 1    
    90   45  107 1    
    91   46   47 1    
    92   46  108 1    
    93   46  109 1    
    94   47   48 1    
    95   48  110 1    
    96   48  111 1    
    97   49   50 am   BACKBONE|DICT|INTERRES
    98   49  112 1    
    99   50   51 2    
   100   50   52 1    
   101   52   53 1    
   102   52   54 1    
   103   52  113 1    
   104   53  114 1    
   105   53  115 1    
   106   53  116 1    
   107   54   55 am   BACKBONE|DICT|INTERRES
   108   54  117 1    
   109   55   56 2    
   110   55   57 1    
   111   57   58 1    
   112   57   59 1    
   113   57  118 1    
   114   58  119 1    
   115   58  120 1    
   116   58  121 1    
   117   59   60 am   BACKBONE|DICT|INTERRES
   118   59  122 1    
   119   60   61 2    
   120   60   62 1    
   121   62   63 1    
   122   62   64 1    
   123   62  123 1    
   124   63  124 1    
   125   63  125 1    
   126   63  126 1    
   127   64   65 am   BACKBONE|DICT|INTERRES
   128   64  127 1    
   129   65   66 2    
@<TRIPOS>SUBSTRUCTURE
     1 UNK         1 GROUP             0       ****    0 ROOT    
