@<TRIPOS>MOLECULE
3R134
127   129    1
SMALL
USER_CHARGES


@<TRIPOS>ATOM
      1 CA         34.7274  -45.6029  -46.8451 C.3       0 UNK        -0.1968 
      2 C          34.0796  -45.6253  -48.2224 C.2       0 UNK         0.4852 
      3 O          32.9515  -46.1035  -48.3518 O.2       0 UNK        -0.5359 
      4 N          34.7864  -45.1028  -49.2366 N.am      1 UNK        -0.4300 
      5 CA         34.4094  -45.0582  -50.6574 C.3       1 UNK         0.0863 
      6 C6         33.0201  -44.3968  -50.8949 C.3       11 UNK        -0.0953 
      7 S7         32.9257  -43.4644  -52.4591 S.3       11 UNK        -0.2369 
      8 C8         31.4720  -44.2398  -53.2247 C.3       11 UNK         0.0226 
      9 C9         31.2476  -43.7230  -54.6357 C.ar      11 UNK        -0.0699 
     10 C10        32.0209  -44.2334  -55.6791 C.ar      11 UNK        -0.0804 
     11 C11        31.8137  -43.8113  -56.9942 C.ar      11 UNK        -0.0871 
     12 C12        30.8375  -42.8485  -57.2571 C.ar      11 UNK        -0.1008 
     13 C13        30.0667  -42.3145  -56.2204 C.ar      11 UNK        -0.0735 
     14 C14        30.2732  -42.7562  -54.9080 C.ar      11 UNK        -0.0945 
     15 C15        29.0252  -41.2521  -56.5365 C.3       11 UNK         0.0169 
     16 S16        27.5986  -41.9554  -57.4233 S.3       11 UNK        -0.2669 
     17 C17        26.6108  -42.6427  -56.0518 C.3       11 UNK        -0.0850 
     18 CA         26.8723  -44.1498  -55.7662 C.3       10 UNK         0.0855 
     19 C          26.0470  -44.5999  -54.5281 C.2       10 UNK         0.5543 
     20 N          26.6534  -44.5759  -53.3480 N.am      10 UNK        -0.7343 
     21 O          24.8573  -44.8961  -54.6016 O.2       10 UNK        -0.5027 
     22 N          26.7297  -45.0274  -56.9454 N.am      10 UNK        -0.4495 
     23 C          25.6615  -45.1315  -57.7480 C.2       10 UNK         0.4903 
     24 O          24.5942  -44.5430  -57.5726 O.2       10 UNK        -0.4860 
     25 CA         25.8176  -45.9879  -59.0109 C.3       9 UNK         0.0227 
     26 CB         26.6889  -45.2645  -60.0549 C.3       9 UNK        -0.1964 
     27 N          26.3604  -47.3252  -58.7539 N.am      9 UNK        -0.4231 
     28 C          25.9861  -48.4161  -59.4388 C.2       9 UNK         0.5014 
     29 O          25.0762  -48.4249  -60.2704 O.2       9 UNK        -0.5270 
     30 CA         26.7731  -49.7165  -59.2053 C.3       8 UNK         0.0284 
     31 CB         28.0625  -49.7133  -60.0422 C.3       8 UNK        -0.1977 
     32 N          27.0912  -49.9807  -57.8017 N.am      8 UNK        -0.4342 
     33 C          26.1885  -50.3231  -56.8719 C.2       8 UNK         0.5039 
     34 O          24.9832  -50.4438  -57.0963 O.2       8 UNK        -0.5547 
     35 CA         26.7166  -50.5806  -55.4493 C.3       7 UNK         0.0281 
     36 CB         27.2791  -52.0056  -55.3222 C.3       7 UNK        -0.1963 
     37 N          27.7309  -49.6080  -55.0379 N.am      7 UNK        -0.4444 
     38 C          27.4820  -48.3062  -54.8407 C.2       7 UNK         0.5104 
     39 O          26.3598  -47.8112  -54.9159 O.2       7 UNK        -0.5100 
     40 CA         28.6905  -47.3985  -54.5511 C.3       6 UNK         0.0396 
     41 CB         29.0995  -47.4903  -53.0733 C.3       6 UNK        -0.1801 
     42 N          29.8329  -47.6892  -55.4194 N.am      6 UNK        -0.4747 
     43 C          29.8228  -47.5740  -56.7571 C.2       6 UNK         0.5012 
     44 O          28.8677  -47.1169  -57.3900 O.2       6 UNK        -0.5003 
     45 CA         31.0416  -48.1440  -57.5170 C.3       5 UNK         0.0782 
     46 C46        32.1883  -47.1266  -57.6931 C.3       11 UNK        -0.0868 
     47 S47        31.8243  -45.8152  -58.9051 S.3       11 UNK        -0.2515 
     48 C48        32.6432  -44.3845  -58.1325 C.3       11 UNK         0.0199 
     49 N          31.5407  -49.3606  -56.8748 N.am      5 UNK        -0.4607 
     50 C          30.9283  -50.5488  -56.9125 C.2       4 UNK         0.5031 
     51 O          29.8770  -50.7552  -57.5157 O.2       4 UNK        -0.5119 
     52 CA         31.5841  -51.6832  -56.1084 C.3       4 UNK         0.0263 
     53 CB         32.7193  -52.3334  -56.9147 C.3       4 UNK        -0.1967 
     54 N          32.0952  -51.2281  -54.8114 N.am      4 UNK        -0.4237 
     55 C          31.3113  -50.8080  -53.8086 C.2       3 UNK         0.4908 
     56 O          30.0823  -50.7991  -53.8651 O.2       3 UNK        -0.5102 
     57 CA         32.0057  -50.2834  -52.5404 C.3       3 UNK         0.0241 
     58 CB         32.3147  -51.4432  -51.5803 C.3       3 UNK        -0.1971 
     59 N          33.2275  -49.5063  -52.7795 N.am      3 UNK        -0.4139 
     60 C          33.3099  -48.3942  -53.5228 C.2       2 UNK         0.5016 
     61 O          32.3799  -47.9367  -54.1888 O.2       2 UNK        -0.5319 
     62 CA         34.6537  -47.6509  -53.5050 C.3       2 UNK         0.0286 
     63 CB         35.1085  -47.2692  -54.9242 C.3       2 UNK        -0.1963 
     64 N          34.5480  -46.4433  -52.6832 N.am      2 UNK        -0.4790 
     65 C          34.5583  -46.4387  -51.3435 C.2       1 UNK         0.5024 
     66 O          34.7185  -47.4640  -50.6756 O.2       1 UNK        -0.4888 
     67 H67        34.8365  -46.6188  -46.4664 H         1 UNK         0.0892 
     68 H68        34.1051  -45.0436  -46.1469 H         1 UNK         0.0892 
     69 H69        35.7143  -45.1407  -46.8640 H         1 UNK         0.0892 
     70 H70        35.7138  -44.7520  -49.0409 H         1 UNK         0.3107 
     71 H71        35.1696  -44.4178  -51.1082 H         1 UNK         0.0773 
     72 H72        32.8109  -43.6735  -50.1052 H         1 UNK         0.0680 
     73 H73        32.2168  -45.1338  -50.8340 H         1 UNK         0.0680 
     74 H74        31.6229  -45.3195  -53.2579 H         1 UNK         0.0650 
     75 H75        30.5926  -44.0626  -52.6036 H         1 UNK         0.0650 
     76 H76        32.7837  -44.9631  -55.4551 H         1 UNK         0.1397 
     77 H77        30.6712  -42.5154  -58.2727 H         1 UNK         0.1363 
     78 H78        29.6788  -42.3488  -54.1018 H         1 UNK         0.1355 
     79 H79        29.4820  -40.4871  -57.1662 H         1 UNK         0.0707 
     80 H80        28.6949  -40.7392  -55.6321 H         1 UNK         0.0707 
     81 H81        25.5580  -42.4773  -56.2863 H         1 UNK         0.1034 
     82 H82        26.7993  -42.0507  -55.1544 H         1 UNK         0.1034 
     83 H83        27.9252  -44.2390  -55.5000 H         1 UNK         0.0482 
     84 H84        27.6153  -44.2940  -53.2554 H         1 UNK         0.3460 
     85 H85        26.1271  -44.8364  -52.5290 H         1 UNK         0.3460 
     86 H86        27.5532  -45.5744  -57.1703 H         1 UNK         0.2989 
     87 H87        24.8131  -46.0832  -59.4294 H         1 UNK         0.0559 
     88 H88        26.6804  -45.7886  -61.0106 H         1 UNK         0.0848 
     89 H89        27.7262  -45.1829  -59.7270 H         1 UNK         0.0848 
     90 H90        26.3240  -44.2525  -60.2370 H         1 UNK         0.0848 
     91 H91        27.1394  -47.3918  -58.1028 H         1 UNK         0.3144 
     92 H92        26.1519  -50.5420  -59.5600 H         1 UNK         0.0727 
     93 H93        28.5981  -50.6585  -59.9531 H         1 UNK         0.0790 
     94 H94        28.7367  -48.9125  -59.7394 H         1 UNK         0.0790 
     95 H95        27.8398  -49.5671  -61.1000 H         1 UNK         0.0790 
     96 H96        28.0760  -49.9981  -57.5511 H         1 UNK         0.3215 
     97 H97        25.8716  -50.4899  -54.7631 H         1 UNK         0.0863 
     98 H98        27.5858  -52.2201  -54.2983 H         1 UNK         0.0808 
     99 H99        28.1437  -52.1602  -55.9680 H         1 UNK         0.0808 
    100 H100       26.5283  -52.7471  -55.5985 H         1 UNK         0.0808 
    101 H101       28.6706  -49.9590  -54.8703 H         1 UNK         0.3118 
    102 H102       28.3992  -46.3696  -54.7514 H         1 UNK         0.0546 
    103 H103       28.2937  -47.1366  -52.4291 H         1 UNK         0.0828 
    104 H104       29.9771  -46.8838  -52.8583 H         1 UNK         0.0828 
    105 H105       29.3210  -48.5140  -52.7764 H         1 UNK         0.0828 
    106 H106       30.6899  -48.0008  -54.9662 H         1 UNK         0.3005 
    107 H107       30.6929  -48.4247  -58.5129 H         1 UNK         0.1257 
    108 H108       33.0832  -47.6367  -58.0538 H         1 UNK         0.0775 
    109 H109       32.4623  -46.7064  -56.7291 H         1 UNK         0.0775 
    110 H110       33.6363  -44.6701  -57.7815 H         1 UNK         0.0840 
    111 H111       32.8015  -43.6186  -58.8933 H         1 UNK         0.0840 
    112 H112       32.3615  -49.2572  -56.2964 H         1 UNK         0.2987 
    113 H113       30.8195  -52.4412  -55.9240 H         1 UNK         0.0785 
    114 H114       33.5308  -51.6324  -57.1141 H         1 UNK         0.0798 
    115 H115       32.3551  -52.6928  -57.8784 H         1 UNK         0.0798 
    116 H116       33.1378  -53.1917  -56.3887 H         1 UNK         0.0798 
    117 H117       33.0966  -51.2139  -54.6835 H         1 UNK         0.3079 
    118 H118       31.3010  -49.6161  -52.0412 H         1 UNK         0.0794 
    119 H119       33.0548  -52.1278  -51.9966 H         1 UNK         0.0786 
    120 H120       31.4159  -52.0243  -51.3677 H         1 UNK         0.0786 
    121 H121       32.6936  -51.0779  -50.6255 H         1 UNK         0.0786 
    122 H122       34.0391  -49.7808  -52.2441 H         1 UNK         0.3032 
    123 H123       35.4167  -48.3072  -53.0795 H         1 UNK         0.1094 
    124 H124       34.4313  -46.5585  -55.3946 H         1 UNK         0.0794 
    125 H125       36.1023  -46.8213  -54.9118 H         1 UNK         0.0794 
    126 H126       35.1585  -48.1477  -55.5688 H         1 UNK         0.0794 
    127 H127       34.3779  -45.5732  -53.1682 H         1 UNK         0.3016 
@<TRIPOS>BOND
     1    1    2 1    
     2    1   67 1    
     3    1   68 1    
     4    1   69 1    
     5    2    3 2    
     6    2    4 am   BACKBONE|DICT|INTERRES
     7    4    5 1    
     8    4   70 1    
     9    5    6 1    
    10    5   65 1    
    11    5   71 1    
    12    6    7 1    
    13    6   72 1    
    14    6   73 1    
    15    7    8 1    
    16    8    9 1    
    17    8   74 1    
    18    8   75 1    
    19    9   10 ar   
    20    9   14 ar   
    21   10   11 ar   
    22   10   76 1    
    23   11   12 ar   
    24   11   48 1    
    25   12   13 ar   
    26   12   77 1    
    27   13   14 ar   
    28   13   15 1    
    29   14   78 1    
    30   15   16 1    
    31   15   79 1    
    32   15   80 1    
    33   16   17 1    
    34   17   18 1    
    35   17   81 1    
    36   17   82 1    
    37   18   19 1    
    38   18   22 1    
    39   18   83 1    
    40   19   20 am   BACKBONE|DICT|INTERRES
    41   19   21 2    
    42   20   84 1    
    43   20   85 1    
    44   22   23 am   BACKBONE|DICT|INTERRES
    45   22   86 1    
    46   23   24 2    
    47   23   25 1    
    48   25   26 1    
    49   25   27 1    
    50   25   87 1    
    51   26   88 1    
    52   26   89 1    
    53   26   90 1    
    54   27   28 am   BACKBONE|DICT|INTERRES
    55   27   91 1    
    56   28   29 2    
    57   28   30 1    
    58   30   31 1    
    59   30   32 1    
    60   30   92 1    
    61   31   93 1    
    62   31   94 1    
    63   31   95 1    
    64   32   33 am   BACKBONE|DICT|INTERRES
    65   32   96 1    
    66   33   34 2    
    67   33   35 1    
    68   35   36 1    
    69   35   37 1    
    70   35   97 1    
    71   36   98 1    
    72   36   99 1    
    73   36  100 1    
    74   37   38 am   BACKBONE|DICT|INTERRES
    75   37  101 1    
    76   38   39 2    
    77   38   40 1    
    78   40   41 1    
    79   40   42 1    
    80   40  102 1    
    81   41  103 1    
    82   41  104 1    
    83   41  105 1    
    84   42   43 am   BACKBONE|DICT|INTERRES
    85   42  106 1    
    86   43   44 2    
    87   43   45 1    
    88   45   46 1    
    89   45   49 1    
    90   45  107 1    
    91   46   47 1    
    92   46  108 1    
    93   46  109 1    
    94   47   48 1    
    95   48  110 1    
    96   48  111 1    
    97   49   50 am   BACKBONE|DICT|INTERRES
    98   49  112 1    
    99   50   51 2    
   100   50   52 1    
   101   52   53 1    
   102   52   54 1    
   103   52  113 1    
   104   53  114 1    
   105   53  115 1    
   106   53  116 1    
   107   54   55 am   BACKBONE|DICT|INTERRES
   108   54  117 1    
   109   55   56 2    
   110   55   57 1    
   111   57   58 1    
   112   57   59 1    
   113   57  118 1    
   114   58  119 1    
   115   58  120 1    
   116   58  121 1    
   117   59   60 am   BACKBONE|DICT|INTERRES
   118   59  122 1    
   119   60   61 2    
   120   60   62 1    
   121   62   63 1    
   122   62   64 1    
   123   62  123 1    
   124   63  124 1    
   125   63  125 1    
   126   63  126 1    
   127   64   65 am   BACKBONE|DICT|INTERRES
   128   64  127 1    
   129   65   66 2    
@<TRIPOS>SUBSTRUCTURE
     1 UNK         1 GROUP             0       ****    0 ROOT    
