@<TRIPOS>MOLECULE
3R134
127   129    1
SMALL
USER_CHARGES


@<TRIPOS>ATOM
      1 CA         29.3422  -44.1862  -52.7106 C.3       0 UNK        -0.1968 
      2 C          30.5043  -44.6096  -51.8310 C.2       0 UNK         0.4852 
      3 O          30.4731  -44.3712  -50.6230 O.2       0 UNK        -0.5359 
      4 N          31.5232  -45.2392  -52.4233 N.am      1 UNK        -0.4300 
      5 CA         32.7108  -45.7373  -51.7377 C.3       1 UNK         0.0863 
      6 C6         33.7213  -44.6079  -51.3936 C.3       11 UNK        -0.0953 
      7 S7         34.5423  -43.8251  -52.8256 S.3       11 UNK        -0.2369 
      8 C8         33.4194  -42.4404  -53.2351 C.3       11 UNK         0.0226 
      9 C9         32.6337  -42.6189  -54.5362 C.ar      11 UNK        -0.0699 
     10 C10        33.1497  -43.3480  -55.6148 C.ar      11 UNK        -0.0804 
     11 C11        32.4456  -43.4416  -56.8179 C.ar      11 UNK        -0.0871 
     12 C12        31.2108  -42.8001  -56.9469 C.ar      11 UNK        -0.1008 
     13 C13        30.6864  -42.0569  -55.8871 C.ar      11 UNK        -0.0735 
     14 C14        31.4008  -41.9734  -54.6861 C.ar      11 UNK        -0.0945 
     15 C15        29.3882  -41.2813  -56.0622 C.3       11 UNK         0.0169 
     16 S16        28.0305  -41.9609  -55.0621 S.3       11 UNK        -0.2669 
     17 C17        27.1594  -43.0840  -56.2155 C.3       11 UNK        -0.0850 
     18 CA         26.7648  -44.4623  -55.5998 C.3       10 UNK         0.0855 
     19 C          25.8198  -44.3955  -54.3576 C.2       10 UNK         0.5543 
     20 N          25.5011  -45.5332  -53.7537 N.am      10 UNK        -0.7343 
     21 O          25.3470  -43.3380  -53.9486 O.2       10 UNK        -0.5027 
     22 N          26.2557  -45.4065  -56.6128 N.am      10 UNK        -0.4495 
     23 C          25.0935  -45.2747  -57.2714 C.2       10 UNK         0.4903 
     24 O          24.3856  -44.2693  -57.1953 O.2       10 UNK        -0.4860 
     25 CA         24.5758  -46.4531  -58.1208 C.3       9 UNK         0.0227 
     26 CB         24.0745  -45.9891  -59.5058 C.3       9 UNK        -0.1964 
     27 N          25.4712  -47.6087  -58.2441 N.am      9 UNK        -0.4231 
     28 C          26.6241  -47.7061  -58.9171 C.2       9 UNK         0.5014 
     29 O          27.1750  -46.7567  -59.4763 O.2       9 UNK        -0.5270 
     30 CA         27.2389  -49.1208  -58.9958 C.3       8 UNK         0.0284 
     31 CB         28.5438  -49.1529  -59.8119 C.3       8 UNK        -0.1977 
     32 N          27.4740  -49.7201  -57.6768 N.am      8 UNK        -0.4342 
     33 C          26.5287  -50.2130  -56.8638 C.2       8 UNK         0.5039 
     34 O          25.3305  -50.2324  -57.1516 O.2       8 UNK        -0.5547 
     35 CA         26.9795  -50.7233  -55.4847 C.3       7 UNK         0.0281 
     36 CB         27.5733  -52.1372  -55.5865 C.3       7 UNK        -0.1963 
     37 N          27.9376  -49.8259  -54.8356 N.am      7 UNK        -0.4444 
     38 C          27.6608  -48.5727  -54.4455 C.2       7 UNK         0.5104 
     39 O          26.5505  -48.0489  -54.5378 O.2       7 UNK        -0.5100 
     40 CA         28.8362  -47.7414  -53.9056 C.3       6 UNK         0.0396 
     41 CB         29.1803  -48.1433  -52.4622 C.3       6 UNK        -0.1801 
     42 N          30.0181  -47.8477  -54.7636 N.am      6 UNK        -0.4747 
     43 C          30.0658  -47.4378  -56.0417 C.2       6 UNK         0.5012 
     44 O          29.1555  -46.8151  -56.5876 O.2       6 UNK        -0.5003 
     45 CA         31.3025  -47.8542  -56.8649 C.3       5 UNK         0.0782 
     46 C46        32.3740  -46.7401  -56.9528 C.3       11 UNK        -0.0868 
     47 S47        32.0857  -45.6847  -58.4117 S.3       11 UNK        -0.2515 
     48 C48        33.0435  -44.1992  -57.9938 C.3       11 UNK         0.0199 
     49 N          31.8564  -49.1359  -56.4156 N.am      5 UNK        -0.4607 
     50 C          31.2759  -50.3142  -56.6834 C.2       4 UNK         0.5031 
     51 O          30.2239  -50.4265  -57.3105 O.2       4 UNK        -0.5119 
     52 CA         31.9580  -51.5746  -56.1359 C.3       4 UNK         0.0263 
     53 CB         33.1718  -51.9571  -56.9972 C.3       4 UNK        -0.1967 
     54 N          32.3692  -51.4350  -54.7404 N.am      4 UNK        -0.4237 
     55 C          31.5443  -51.2553  -53.7030 C.2       3 UNK         0.4908 
     56 O          30.3219  -51.1643  -53.8133 O.2       3 UNK        -0.5102 
     57 CA         32.1881  -51.1382  -52.3100 C.3       3 UNK         0.0241 
     58 CB         32.7518  -52.4922  -51.8357 C.3       3 UNK        -0.1971 
     59 N          33.1872  -50.0651  -52.2017 N.am      3 UNK        -0.4139 
     60 C          34.3587  -49.9259  -52.8425 C.2       2 UNK         0.5016 
     61 O          34.8174  -50.7665  -53.6189 O.2       2 UNK        -0.5319 
     62 CA         35.1493  -48.6257  -52.5844 C.3       2 UNK         0.0286 
     63 CB         35.8870  -48.1388  -53.8511 C.3       2 UNK        -0.1963 
     64 N          34.3588  -47.5297  -51.9983 N.am      2 UNK        -0.4790 
     65 C          33.3118  -46.8984  -52.5519 C.2       1 UNK         0.5024 
     66 O          32.8104  -47.2185  -53.6339 O.2       1 UNK        -0.4888 
     67 H67        29.5540  -44.3529  -53.7668 H         1 UNK         0.0892 
     68 H68        29.1418  -43.1249  -52.5692 H         1 UNK         0.0892 
     69 H69        28.4426  -44.7393  -52.4432 H         1 UNK         0.0892 
     70 H70        31.5033  -45.4604  -53.4110 H         1 UNK         0.3107 
     71 H71        32.3789  -46.1843  -50.7981 H         1 UNK         0.0773 
     72 H72        34.5077  -45.0024  -50.7487 H         1 UNK         0.0680 
     73 H73        33.2342  -43.8382  -50.7937 H         1 UNK         0.0680 
     74 H74        32.7329  -42.2665  -52.4056 H         1 UNK         0.0650 
     75 H75        34.0201  -41.5350  -53.3268 H         1 UNK         0.0650 
     76 H76        34.1141  -43.8288  -55.5323 H         1 UNK         0.1397 
     77 H77        30.6723  -42.8622  -57.8829 H         1 UNK         0.1363 
     78 H78        31.0017  -41.3821  -53.8732 H         1 UNK         0.1355 
     79 H79        29.0920  -41.2328  -57.1112 H         1 UNK         0.0707 
     80 H80        29.5572  -40.2489  -55.7529 H         1 UNK         0.0707 
     81 H81        27.7938  -43.2546  -57.0864 H         1 UNK         0.1034 
     82 H82        26.2756  -42.5621  -56.5843 H         1 UNK         0.1034 
     83 H83        27.6890  -44.9077  -55.2342 H         1 UNK         0.0482 
     84 H84        25.8504  -46.4256  -54.0967 H         1 UNK         0.3460 
     85 H85        24.8800  -45.5108  -52.9613 H         1 UNK         0.3460 
     86 H86        26.7949  -46.2541  -56.7326 H         1 UNK         0.2989 
     87 H87        23.7078  -46.8320  -57.5796 H         1 UNK         0.0559 
     88 H88        23.6659  -46.8201  -60.0805 H         1 UNK         0.0848 
     89 H89        24.8715  -45.5329  -60.0935 H         1 UNK         0.0848 
     90 H90        23.2814  -45.2466  -59.4089 H         1 UNK         0.0848 
     91 H91        25.1509  -48.4643  -57.7926 H         1 UNK         0.3144 
     92 H92        26.5160  -49.7470  -59.5230 H         1 UNK         0.0727 
     93 H93        28.9560  -50.1605  -59.8680 H         1 UNK         0.0790 
     94 H94        29.3023  -48.5017  -59.3801 H         1 UNK         0.0790 
     95 H95        28.3721  -48.8156  -60.8349 H         1 UNK         0.0790 
     96 H96        28.4460  -49.7938  -57.3841 H         1 UNK         0.3215 
     97 H97        26.0935  -50.7743  -54.8482 H         1 UNK         0.0863 
     98 H98        27.8219  -52.5335  -54.6018 H         1 UNK         0.0808 
     99 H99        28.4809  -52.1551  -56.1902 H         1 UNK         0.0808 
    100 H100       26.8628  -52.8268  -56.0442 H         1 UNK         0.0808 
    101 H101       28.8696  -50.1959  -54.6664 H         1 UNK         0.3118 
    102 H102       28.5287  -46.6959  -53.8996 H         1 UNK         0.0546 
    103 H103       28.3413  -47.9369  -51.7966 H         1 UNK         0.0828 
    104 H104       30.0376  -47.5915  -52.0812 H         1 UNK         0.0828 
    105 H105       29.4053  -49.2051  -52.3728 H         1 UNK         0.0828 
    106 H106       30.8262  -48.3237  -54.3865 H         1 UNK         0.3005 
    107 H107       30.9341  -48.0326  -57.8766 H         1 UNK         0.1257 
    108 H108       33.3714  -47.1688  -57.0621 H         1 UNK         0.0775 
    109 H109       32.4054  -46.1380  -56.0434 H         1 UNK         0.0775 
    110 H110       34.0780  -44.4844  -57.7958 H         1 UNK         0.0840 
    111 H111       33.0702  -43.5415  -58.8637 H         1 UNK         0.0840 
    112 H112       32.7036  -49.1075  -55.8670 H         1 UNK         0.2987 
    113 H113       31.2328  -52.3896  -56.1871 H         1 UNK         0.0785 
    114 H114       33.9567  -51.2009  -56.9515 H         1 UNK         0.0798 
    115 H115       32.8873  -52.0714  -58.0443 H         1 UNK         0.0798 
    116 H116       33.6024  -52.9051  -56.6743 H         1 UNK         0.0798 
    117 H117       33.3679  -51.4269  -54.5399 H         1 UNK         0.3079 
    118 H118       31.3865  -50.8647  -51.6219 H         1 UNK         0.0794 
    119 H119       33.5697  -52.8433  -52.4655 H         1 UNK         0.0786 
    120 H120       31.9787  -53.2616  -51.8517 H         1 UNK         0.0786 
    121 H121       33.1230  -52.4282  -50.8129 H         1 UNK         0.0786 
    122 H122       32.9210  -49.2981  -51.6013 H         1 UNK         0.3032 
    123 H123       35.9071  -48.8869  -51.8437 H         1 UNK         0.1094 
    124 H124       36.4528  -47.2280  -53.6548 H         1 UNK         0.0794 
    125 H125       36.5965  -48.8873  -54.2061 H         1 UNK         0.0794 
    126 H126       35.1967  -47.9333  -54.6699 H         1 UNK         0.0794 
    127 H127       34.6808  -47.2075  -51.0952 H         1 UNK         0.3016 
@<TRIPOS>BOND
     1    1    2 1    
     2    1   67 1    
     3    1   68 1    
     4    1   69 1    
     5    2    3 2    
     6    2    4 am   BACKBONE|DICT|INTERRES
     7    4    5 1    
     8    4   70 1    
     9    5    6 1    
    10    5   65 1    
    11    5   71 1    
    12    6    7 1    
    13    6   72 1    
    14    6   73 1    
    15    7    8 1    
    16    8    9 1    
    17    8   74 1    
    18    8   75 1    
    19    9   10 ar   
    20    9   14 ar   
    21   10   11 ar   
    22   10   76 1    
    23   11   12 ar   
    24   11   48 1    
    25   12   13 ar   
    26   12   77 1    
    27   13   14 ar   
    28   13   15 1    
    29   14   78 1    
    30   15   16 1    
    31   15   79 1    
    32   15   80 1    
    33   16   17 1    
    34   17   18 1    
    35   17   81 1    
    36   17   82 1    
    37   18   19 1    
    38   18   22 1    
    39   18   83 1    
    40   19   20 am   BACKBONE|DICT|INTERRES
    41   19   21 2    
    42   20   84 1    
    43   20   85 1    
    44   22   23 am   BACKBONE|DICT|INTERRES
    45   22   86 1    
    46   23   24 2    
    47   23   25 1    
    48   25   26 1    
    49   25   27 1    
    50   25   87 1    
    51   26   88 1    
    52   26   89 1    
    53   26   90 1    
    54   27   28 am   BACKBONE|DICT|INTERRES
    55   27   91 1    
    56   28   29 2    
    57   28   30 1    
    58   30   31 1    
    59   30   32 1    
    60   30   92 1    
    61   31   93 1    
    62   31   94 1    
    63   31   95 1    
    64   32   33 am   BACKBONE|DICT|INTERRES
    65   32   96 1    
    66   33   34 2    
    67   33   35 1    
    68   35   36 1    
    69   35   37 1    
    70   35   97 1    
    71   36   98 1    
    72   36   99 1    
    73   36  100 1    
    74   37   38 am   BACKBONE|DICT|INTERRES
    75   37  101 1    
    76   38   39 2    
    77   38   40 1    
    78   40   41 1    
    79   40   42 1    
    80   40  102 1    
    81   41  103 1    
    82   41  104 1    
    83   41  105 1    
    84   42   43 am   BACKBONE|DICT|INTERRES
    85   42  106 1    
    86   43   44 2    
    87   43   45 1    
    88   45   46 1    
    89   45   49 1    
    90   45  107 1    
    91   46   47 1    
    92   46  108 1    
    93   46  109 1    
    94   47   48 1    
    95   48  110 1    
    96   48  111 1    
    97   49   50 am   BACKBONE|DICT|INTERRES
    98   49  112 1    
    99   50   51 2    
   100   50   52 1    
   101   52   53 1    
   102   52   54 1    
   103   52  113 1    
   104   53  114 1    
   105   53  115 1    
   106   53  116 1    
   107   54   55 am   BACKBONE|DICT|INTERRES
   108   54  117 1    
   109   55   56 2    
   110   55   57 1    
   111   57   58 1    
   112   57   59 1    
   113   57  118 1    
   114   58  119 1    
   115   58  120 1    
   116   58  121 1    
   117   59   60 am   BACKBONE|DICT|INTERRES
   118   59  122 1    
   119   60   61 2    
   120   60   62 1    
   121   62   63 1    
   122   62   64 1    
   123   62  123 1    
   124   63  124 1    
   125   63  125 1    
   126   63  126 1    
   127   64   65 am   BACKBONE|DICT|INTERRES
   128   64  127 1    
   129   65   66 2    
@<TRIPOS>SUBSTRUCTURE
     1 UNK         1 GROUP             0       ****    0 ROOT    
