@<TRIPOS>MOLECULE
3R134
127   129    1
SMALL
USER_CHARGES


@<TRIPOS>ATOM
      1 CA         37.7744  -43.8113  -56.1387 C.3       0 UNK        -0.1968 
      2 C          36.7777  -44.8851  -55.7280 C.2       0 UNK         0.4852 
      3 O          36.3458  -45.6744  -56.5707 O.2       0 UNK        -0.5359 
      4 N          36.4072  -44.9231  -54.4412 N.am      1 UNK        -0.4300 
      5 CA         35.4781  -45.8961  -53.8614 C.3       1 UNK         0.0863 
      6 C6         34.8227  -45.3735  -52.5583 C.3       11 UNK        -0.0953 
      7 S7         33.5930  -44.0721  -52.8916 S.3       11 UNK        -0.2369 
      8 C8         32.1722  -45.1262  -53.3128 C.3       11 UNK         0.0226 
      9 C9         30.8883  -44.3306  -53.4523 C.ar      11 UNK        -0.0699 
     10 C10        29.9820  -44.2856  -52.3930 C.ar      11 UNK        -0.0804 
     11 C11        28.7513  -43.6382  -52.5354 C.ar      11 UNK        -0.0871 
     12 C12        28.4450  -43.0075  -53.7460 C.ar      11 UNK        -0.1008 
     13 C13        29.3580  -43.0196  -54.8070 C.ar      11 UNK        -0.0735 
     14 C14        30.5817  -43.6807  -54.6497 C.ar      11 UNK        -0.0945 
     15 C15        29.0194  -42.3151  -56.1162 C.3       11 UNK         0.0169 
     16 S16        29.2274  -43.4152  -57.5504 S.3       11 UNK        -0.2669 
     17 C17        28.2288  -42.5722  -58.8230 C.3       11 UNK        -0.0850 
     18 CA         26.7523  -43.0518  -58.8465 C.3       10 UNK         0.0855 
     19 C          25.9530  -42.3333  -59.9722 C.2       10 UNK         0.5543 
     20 N          25.4111  -43.0375  -60.9583 N.am      10 UNK        -0.7343 
     21 O          25.8206  -41.1122  -59.9458 O.2       10 UNK        -0.5027 
     22 N          26.6530  -44.5212  -58.8476 N.am      10 UNK        -0.4495 
     23 C          25.5846  -45.2278  -58.4681 C.2       10 UNK         0.4903 
     24 O          24.5121  -44.7213  -58.1376 O.2       10 UNK        -0.4860 
     25 CA         25.7323  -46.7582  -58.4212 C.3       9 UNK         0.0227 
     26 CB         25.4816  -47.3916  -59.8034 C.3       9 UNK        -0.1964 
     27 N          26.9868  -47.2333  -57.8194 N.am      9 UNK        -0.4231 
     28 C          28.2414  -47.1719  -58.2924 C.2       9 UNK         0.5014 
     29 O          28.5508  -46.6230  -59.3510 O.2       9 UNK        -0.5270 
     30 CA         29.3394  -47.8470  -57.4470 C.3       8 UNK         0.0284 
     31 CB         29.9491  -46.8599  -56.4384 C.3       8 UNK        -0.1977 
     32 N          28.8662  -49.0319  -56.7282 N.am      8 UNK        -0.4342 
     33 C          28.4745  -50.1785  -57.3023 C.2       8 UNK         0.5039 
     34 O          28.5068  -50.3882  -58.5154 O.2       8 UNK        -0.5547 
     35 CA         27.9439  -51.2718  -56.3636 C.3       7 UNK         0.0281 
     36 CB         29.1001  -52.0632  -55.7341 C.3       7 UNK        -0.1963 
     37 N          27.1126  -50.7011  -55.3039 N.am      7 UNK        -0.4444 
     38 C          25.8046  -50.4417  -55.4267 C.2       7 UNK         0.5104 
     39 O          25.1397  -50.7208  -56.4246 O.2       7 UNK        -0.5100 
     40 CA         25.1148  -49.7514  -54.2360 C.3       6 UNK         0.0396 
     41 CB         24.4890  -50.7979  -53.3005 C.3       6 UNK        -0.1801 
     42 N          26.0037  -48.8808  -53.4606 N.am      6 UNK        -0.4747 
     43 C          26.5335  -47.7344  -53.9124 C.2       6 UNK         0.5012 
     44 O          26.3487  -47.2970  -55.0470 O.2       6 UNK        -0.5003 
     45 CA         27.4465  -46.9653  -52.9365 C.3       5 UNK         0.0782 
     46 C46        26.5644  -46.1115  -51.9847 C.3       11 UNK        -0.0868 
     47 S47        27.4824  -45.2643  -50.6551 S.3       11 UNK        -0.2515 
     48 C48        27.7596  -43.6126  -51.3785 C.3       11 UNK         0.0199 
     49 N          28.3997  -47.8231  -52.2129 N.am      5 UNK        -0.4607 
     50 C          29.2233  -48.7391  -52.7437 C.2       4 UNK         0.5031 
     51 O          29.2079  -49.0733  -53.9301 O.2       4 UNK        -0.5119 
     52 CA         30.1786  -49.4364  -51.7584 C.3       4 UNK         0.0263 
     53 CB         29.3939  -50.3949  -50.8454 C.3       4 UNK        -0.1967 
     54 N          31.2443  -50.1967  -52.4208 N.am      4 UNK        -0.4237 
     55 C          32.2628  -49.6724  -53.1151 C.2       3 UNK         0.4908 
     56 O          32.4414  -48.4622  -53.2812 O.2       3 UNK        -0.5102 
     57 CA         33.2602  -50.6783  -53.7110 C.3       3 UNK         0.0241 
     58 CB         32.6365  -51.4929  -54.8589 C.3       3 UNK        -0.1971 
     59 N          34.4208  -49.9474  -54.2072 N.am      3 UNK        -0.4139 
     60 C          35.6814  -50.3943  -54.2597 C.2       2 UNK         0.5016 
     61 O          36.0166  -51.5341  -53.9343 O.2       2 UNK        -0.5319 
     62 CA         36.7568  -49.4093  -54.7629 C.3       2 UNK         0.0286 
     63 CB         37.2030  -49.7796  -56.1869 C.3       2 UNK        -0.1963 
     64 N          36.3065  -48.0136  -54.7553 N.am      2 UNK        -0.4790 
     65 C          36.1663  -47.2599  -53.6578 C.2       1 UNK         0.5024 
     66 O          36.5393  -47.6113  -52.5371 O.2       1 UNK        -0.4888 
     67 H67        38.6744  -44.2715  -56.5455 H         1 UNK         0.0892 
     68 H68        37.3407  -43.1722  -56.9072 H         1 UNK         0.0892 
     69 H69        38.0652  -43.1813  -55.2983 H         1 UNK         0.0892 
     70 H70        36.8029  -44.2588  -53.7913 H         1 UNK         0.3107 
     71 H71        34.6758  -46.0692  -54.5819 H         1 UNK         0.0773 
     72 H72        35.5770  -44.9806  -51.8744 H         1 UNK         0.0680 
     73 H73        34.3210  -46.1794  -52.0180 H         1 UNK         0.0680 
     74 H74        32.0472  -45.8903  -52.5441 H         1 UNK         0.0650 
     75 H75        32.3718  -45.6602  -54.2427 H         1 UNK         0.0650 
     76 H76        30.2241  -44.7796  -51.4620 H         1 UNK         0.1397 
     77 H77        27.4965  -42.5006  -53.8610 H         1 UNK         0.1363 
     78 H78        31.2881  -43.7077  -55.4681 H         1 UNK         0.1355 
     79 H79        27.9913  -41.9503  -56.0955 H         1 UNK         0.0707 
     80 H80        29.6612  -41.4412  -56.2344 H         1 UNK         0.0707 
     81 H81        28.2842  -41.4931  -58.6662 H         1 UNK         0.1034 
     82 H82        28.6996  -42.7602  -59.7898 H         1 UNK         0.1034 
     83 H83        26.2984  -42.7150  -57.9125 H         1 UNK         0.0482 
     84 H84        24.8926  -42.5634  -61.6809 H         1 UNK         0.3460 
     85 H85        25.5142  -44.0392  -60.9810 H         1 UNK         0.3460 
     86 H86        27.4918  -45.0345  -59.1033 H         1 UNK         0.2989 
     87 H87        24.9489  -47.1225  -57.7545 H         1 UNK         0.0559 
     88 H88        26.2127  -47.0657  -60.5436 H         1 UNK         0.0848 
     89 H89        24.4955  -47.1195  -60.1818 H         1 UNK         0.0848 
     90 H90        25.5202  -48.4798  -59.7515 H         1 UNK         0.0848 
     91 H91        26.8748  -47.5868  -56.8725 H         1 UNK         0.3144 
     92 H92        30.1300  -48.1695  -58.1275 H         1 UNK         0.0727 
     93 H93        30.7004  -47.3398  -55.8100 H         1 UNK         0.0790 
     94 H94        29.1913  -46.4292  -55.7828 H         1 UNK         0.0790 
     95 H95        30.4417  -46.0359  -56.9544 H         1 UNK         0.0790 
     96 H96        28.8759  -48.9812  -55.7103 H         1 UNK         0.3215 
     97 H97        27.3466  -51.9651  -56.9604 H         1 UNK         0.0863 
     98 H98        28.7305  -52.9008  -55.1426 H         1 UNK         0.0808 
     99 H99        29.7040  -51.4342  -55.0813 H         1 UNK         0.0808 
    100 H100       29.7598  -52.4719  -56.5008 H         1 UNK         0.0808 
    101 H101       27.5947  -50.3727  -54.4762 H         1 UNK         0.3118 
    102 H102       24.3101  -49.1325  -54.6389 H         1 UNK         0.0546 
    103 H103       25.2456  -51.4381  -52.8452 H         1 UNK         0.0828 
    104 H104       23.8002  -51.4453  -53.8451 H         1 UNK         0.0828 
    105 H105       23.9202  -50.3258  -52.4993 H         1 UNK         0.0828 
    106 H106       26.2217  -49.1706  -52.5178 H         1 UNK         0.3005 
    107 H107       28.0479  -46.2844  -53.5424 H         1 UNK         0.1257 
    108 H108       25.8178  -46.7383  -51.4928 H         1 UNK         0.0775 
    109 H109       26.0005  -45.3701  -52.5545 H         1 UNK         0.0775 
    110 H110       26.8021  -43.1909  -51.6883 H         1 UNK         0.0840 
    111 H111       28.1491  -42.9521  -50.6028 H         1 UNK         0.0840 
    112 H112       28.4732  -47.6262  -51.2250 H         1 UNK         0.2987 
    113 H113       30.6487  -48.6654  -51.1441 H         1 UNK         0.0785 
    114 H114       30.0492  -50.8755  -50.1186 H         1 UNK         0.0798 
    115 H115       28.8959  -51.1792  -51.4174 H         1 UNK         0.0798 
    116 H116       28.6253  -49.8677  -50.2789 H         1 UNK         0.0798 
    117 H117       31.1708  -51.2017  -52.3652 H         1 UNK         0.3079 
    118 H118       33.5772  -51.3527  -52.9125 H         1 UNK         0.0794 
    119 H119       31.8547  -52.1549  -54.4874 H         1 UNK         0.0786 
    120 H120       33.3782  -52.1246  -55.3482 H         1 UNK         0.0786 
    121 H121       32.1948  -50.8465  -55.6189 H         1 UNK         0.0786 
    122 H122       34.2335  -48.9777  -54.4267 H         1 UNK         0.3032 
    123 H123       37.6177  -49.5015  -54.0966 H         1 UNK         0.1094 
    124 H124       38.0068  -49.1291  -56.5326 H         1 UNK         0.0794 
    125 H125       37.5776  -50.8036  -56.2252 H         1 UNK         0.0794 
    126 H126       36.3807  -49.7063  -56.8997 H         1 UNK         0.0794 
    127 H127       36.0618  -47.5979  -55.6482 H         1 UNK         0.3016 
@<TRIPOS>BOND
     1    1    2 1    
     2    1   67 1    
     3    1   68 1    
     4    1   69 1    
     5    2    3 2    
     6    2    4 am   BACKBONE|DICT|INTERRES
     7    4    5 1    
     8    4   70 1    
     9    5    6 1    
    10    5   65 1    
    11    5   71 1    
    12    6    7 1    
    13    6   72 1    
    14    6   73 1    
    15    7    8 1    
    16    8    9 1    
    17    8   74 1    
    18    8   75 1    
    19    9   10 ar   
    20    9   14 ar   
    21   10   11 ar   
    22   10   76 1    
    23   11   12 ar   
    24   11   48 1    
    25   12   13 ar   
    26   12   77 1    
    27   13   14 ar   
    28   13   15 1    
    29   14   78 1    
    30   15   16 1    
    31   15   79 1    
    32   15   80 1    
    33   16   17 1    
    34   17   18 1    
    35   17   81 1    
    36   17   82 1    
    37   18   19 1    
    38   18   22 1    
    39   18   83 1    
    40   19   20 am   BACKBONE|DICT|INTERRES
    41   19   21 2    
    42   20   84 1    
    43   20   85 1    
    44   22   23 am   BACKBONE|DICT|INTERRES
    45   22   86 1    
    46   23   24 2    
    47   23   25 1    
    48   25   26 1    
    49   25   27 1    
    50   25   87 1    
    51   26   88 1    
    52   26   89 1    
    53   26   90 1    
    54   27   28 am   BACKBONE|DICT|INTERRES
    55   27   91 1    
    56   28   29 2    
    57   28   30 1    
    58   30   31 1    
    59   30   32 1    
    60   30   92 1    
    61   31   93 1    
    62   31   94 1    
    63   31   95 1    
    64   32   33 am   BACKBONE|DICT|INTERRES
    65   32   96 1    
    66   33   34 2    
    67   33   35 1    
    68   35   36 1    
    69   35   37 1    
    70   35   97 1    
    71   36   98 1    
    72   36   99 1    
    73   36  100 1    
    74   37   38 am   BACKBONE|DICT|INTERRES
    75   37  101 1    
    76   38   39 2    
    77   38   40 1    
    78   40   41 1    
    79   40   42 1    
    80   40  102 1    
    81   41  103 1    
    82   41  104 1    
    83   41  105 1    
    84   42   43 am   BACKBONE|DICT|INTERRES
    85   42  106 1    
    86   43   44 2    
    87   43   45 1    
    88   45   46 1    
    89   45   49 1    
    90   45  107 1    
    91   46   47 1    
    92   46  108 1    
    93   46  109 1    
    94   47   48 1    
    95   48  110 1    
    96   48  111 1    
    97   49   50 am   BACKBONE|DICT|INTERRES
    98   49  112 1    
    99   50   51 2    
   100   50   52 1    
   101   52   53 1    
   102   52   54 1    
   103   52  113 1    
   104   53  114 1    
   105   53  115 1    
   106   53  116 1    
   107   54   55 am   BACKBONE|DICT|INTERRES
   108   54  117 1    
   109   55   56 2    
   110   55   57 1    
   111   57   58 1    
   112   57   59 1    
   113   57  118 1    
   114   58  119 1    
   115   58  120 1    
   116   58  121 1    
   117   59   60 am   BACKBONE|DICT|INTERRES
   118   59  122 1    
   119   60   61 2    
   120   60   62 1    
   121   62   63 1    
   122   62   64 1    
   123   62  123 1    
   124   63  124 1    
   125   63  125 1    
   126   63  126 1    
   127   64   65 am   BACKBONE|DICT|INTERRES
   128   64  127 1    
   129   65   66 2    
@<TRIPOS>SUBSTRUCTURE
     1 UNK         1 GROUP             0       ****    0 ROOT    
