@<TRIPOS>MOLECULE
3R134
127   129    1
SMALL
USER_CHARGES


@<TRIPOS>ATOM
      1 CA         31.1857  -43.8724  -49.9905 C.3       0 UNK        -0.1968 
      2 C          32.2481  -44.9347  -50.2317 C.2       0 UNK         0.4852 
      3 O          32.6835  -45.5887  -49.2829 O.2       0 UNK        -0.5359 
      4 N          32.6698  -45.1072  -51.4917 N.am      1 UNK        -0.4300 
      5 CA         33.6208  -46.1346  -51.9242 C.3       1 UNK         0.0863 
      6 C6         34.1200  -45.9114  -53.3751 C.3       11 UNK        -0.0953 
      7 S7         35.0706  -44.3685  -53.5606 S.3       11 UNK        -0.2369 
      8 C8         34.7531  -43.9558  -55.3150 C.3       11 UNK         0.0226 
      9 C9         33.3469  -43.4470  -55.6477 C.ar      11 UNK        -0.0699 
     10 C10        32.4115  -43.1060  -54.6635 C.ar      11 UNK        -0.0804 
     11 C11        31.1351  -42.6570  -55.0090 C.ar      11 UNK        -0.0871 
     12 C12        30.8100  -42.4823  -56.3556 C.ar      11 UNK        -0.1008 
     13 C13        31.7375  -42.7928  -57.3549 C.ar      11 UNK        -0.0735 
     14 C14        32.9946  -43.2893  -56.9924 C.ar      11 UNK        -0.0945 
     15 C15        31.4090  -42.5490  -58.8227 C.3       11 UNK         0.0169 
     16 S16        30.3384  -43.8419  -59.5301 S.3       11 UNK        -0.2669 
     17 C17        28.6723  -43.2735  -59.0415 C.3       11 UNK        -0.0850 
     18 CA         27.9931  -44.2207  -58.0060 C.3       10 UNK         0.0855 
     19 C          26.6731  -43.6628  -57.3883 C.2       10 UNK         0.5543 
     20 N          26.5297  -42.3519  -57.2402 N.am      10 UNK        -0.7343 
     21 O          25.7867  -44.4142  -56.9857 O.2       10 UNK        -0.5027 
     22 N          27.8333  -45.5989  -58.4968 N.am      10 UNK        -0.4495 
     23 C          27.1105  -45.9952  -59.5549 C.2       10 UNK         0.4903 
     24 O          26.5698  -45.2369  -60.3602 O.2       10 UNK        -0.4860 
     25 CA         26.9225  -47.5118  -59.7068 C.3       9 UNK         0.0227 
     26 CB         28.1996  -48.1822  -60.2409 C.3       9 UNK        -0.1964 
     27 N          26.5549  -48.0928  -58.4161 N.am      9 UNK        -0.4231 
     28 C          25.3118  -48.0991  -57.9153 C.2       9 UNK         0.5014 
     29 O          24.3132  -47.7868  -58.5673 O.2       9 UNK        -0.5270 
     30 CA         25.1619  -48.4847  -56.4300 C.3       8 UNK         0.0284 
     31 CB         23.7681  -49.0552  -56.0894 C.3       8 UNK        -0.1977 
     32 N          26.2315  -49.3595  -55.9356 N.am      8 UNK        -0.4342 
     33 C          26.5013  -50.6196  -56.3124 C.2       8 UNK         0.5039 
     34 O          25.8415  -51.2397  -57.1474 O.2       8 UNK        -0.5547 
     35 CA         27.7232  -51.3134  -55.6756 C.3       7 UNK         0.0281 
     36 CB         28.8016  -51.5742  -56.7409 C.3       7 UNK        -0.1963 
     37 N          28.3219  -50.5663  -54.5648 N.am      7 UNK        -0.4444 
     38 C          27.7792  -50.4297  -53.3467 C.2       7 UNK         0.5104 
     39 O          26.7450  -50.9950  -52.9911 O.2       7 UNK        -0.5100 
     40 CA         28.4787  -49.4579  -52.3783 C.3       6 UNK         0.0396 
     41 CB         29.5390  -50.1928  -51.5499 C.3       6 UNK        -0.1801 
     42 N          29.0910  -48.3069  -53.0525 N.am      6 UNK        -0.4747 
     43 C          28.4054  -47.3708  -53.7257 C.2       6 UNK         0.5012 
     44 O          27.1793  -47.3737  -53.8353 O.2       6 UNK        -0.5003 
     45 CA         29.2266  -46.2938  -54.4572 C.3       5 UNK         0.0782 
     46 C46        29.7342  -45.1765  -53.5037 C.3       11 UNK        -0.0868 
     47 S47        28.8187  -43.6159  -53.7719 S.3       11 UNK        -0.2515 
     48 C48        30.1199  -42.3436  -53.9190 C.3       11 UNK         0.0199 
     49 N          30.2904  -46.8999  -55.2670 N.am      5 UNK        -0.4607 
     50 C          30.0451  -47.5585  -56.4072 C.2       4 UNK         0.5031 
     51 O          28.9131  -47.7243  -56.8639 O.2       4 UNK        -0.5119 
     52 CA         31.2417  -48.1124  -57.1955 C.3       4 UNK         0.0263 
     53 CB         31.8191  -47.0186  -58.1063 C.3       4 UNK        -0.1967 
     54 N          32.3240  -48.7073  -56.4060 N.am      4 UNK        -0.4237 
     55 C          32.1995  -49.6866  -55.4987 C.2       3 UNK         0.4908 
     56 O          31.1184  -50.0785  -55.0602 O.2       3 UNK        -0.5102 
     57 CA         33.4986  -50.3603  -55.0142 C.3       3 UNK         0.0241 
     58 CB         34.7473  -50.0036  -55.8488 C.3       3 UNK        -0.1971 
     59 N          33.7410  -49.9969  -53.6245 N.am      3 UNK        -0.4139 
     60 C          33.2527  -50.6318  -52.5520 C.2       2 UNK         0.5016 
     61 O          32.6955  -51.7292  -52.5925 O.2       2 UNK        -0.5319 
     62 CA         33.4136  -49.9172  -51.1951 C.3       2 UNK         0.0286 
     63 CB         34.4635  -50.6331  -50.3290 C.3       2 UNK        -0.1963 
     64 N          33.7749  -48.4970  -51.3062 N.am      2 UNK        -0.4790 
     65 C          32.9895  -47.5334  -51.8091 C.2       1 UNK         0.5024 
     66 O          31.8500  -47.7242  -52.2423 O.2       1 UNK        -0.4888 
     67 H67        31.6049  -43.0449  -49.4188 H         1 UNK         0.0892 
     68 H68        30.7842  -43.4758  -50.9216 H         1 UNK         0.0892 
     69 H69        30.3569  -44.2939  -49.4223 H         1 UNK         0.0892 
     70 H70        32.2781  -44.5417  -52.2257 H         1 UNK         0.3107 
     71 H71        34.4824  -46.0883  -51.2540 H         1 UNK         0.0773 
     72 H72        33.2817  -45.9091  -54.0742 H         1 UNK         0.0680 
     73 H73        34.7753  -46.7264  -53.6887 H         1 UNK         0.0680 
     74 H74        35.4700  -43.1898  -55.6131 H         1 UNK         0.0650 
     75 H75        34.9726  -44.8358  -55.9217 H         1 UNK         0.0650 
     76 H76        32.6662  -43.1863  -53.6190 H         1 UNK         0.1397 
     77 H77        29.8353  -42.0990  -56.6184 H         1 UNK         0.1363 
     78 H78        33.7142  -43.5322  -57.7626 H         1 UNK         0.1355 
     79 H79        32.3296  -42.5175  -59.4074 H         1 UNK         0.0707 
     80 H80        30.9505  -41.5669  -58.9463 H         1 UNK         0.0707 
     81 H81        28.0623  -43.1827  -59.9407 H         1 UNK         0.1034 
     82 H82        28.7543  -42.2592  -58.6539 H         1 UNK         0.1034 
     83 H83        28.6701  -44.3086  -57.1560 H         1 UNK         0.0482 
     84 H84        27.2372  -41.7008  -57.5374 H         1 UNK         0.3460 
     85 H85        25.6819  -42.0055  -56.8192 H         1 UNK         0.3460 
     86 H86        28.2094  -46.3199  -57.8896 H         1 UNK         0.2989 
     87 H87        26.1210  -47.6909  -60.4268 H         1 UNK         0.0559 
     88 H88        29.0506  -48.0344  -59.5763 H         1 UNK         0.0848 
     89 H89        28.4736  -47.7727  -61.2140 H         1 UNK         0.0848 
     90 H90        28.0584  -49.2555  -60.3685 H         1 UNK         0.0848 
     91 H91        27.3221  -48.3021  -57.7835 H         1 UNK         0.3144 
     92 H92        25.2708  -47.5500  -55.8778 H         1 UNK         0.0727 
     93 H93        23.5450  -49.9533  -56.6660 H         1 UNK         0.0790 
     94 H94        22.9844  -48.3284  -56.3064 H         1 UNK         0.0790 
     95 H95        23.6906  -49.3063  -55.0315 H         1 UNK         0.0790 
     96 H96        26.8357  -48.9339  -55.2412 H         1 UNK         0.3215 
     97 H97        27.3820  -52.2771  -55.2918 H         1 UNK         0.0863 
     98 H98        29.1768  -50.6436  -57.1674 H         1 UNK         0.0808 
     99 H99        28.4066  -52.1733  -57.5624 H         1 UNK         0.0808 
    100 H100       29.6490  -52.1183  -56.3234 H         1 UNK         0.0808 
    101 H101       29.2288  -50.1378  -54.7403 H         1 UNK         0.3118 
    102 H102       27.7213  -49.0729  -51.6924 H         1 UNK         0.0546 
    103 H103       30.0082  -49.5276  -50.8251 H         1 UNK         0.0828 
    104 H104       30.3186  -50.6056  -52.1887 H         1 UNK         0.0828 
    105 H105       29.0980  -51.0219  -50.9951 H         1 UNK         0.0828 
    106 H106       30.1026  -48.2246  -52.9899 H         1 UNK         0.3005 
    107 H107       28.5300  -45.8417  -55.1677 H         1 UNK         0.1257 
    108 H108       30.7969  -45.0070  -53.6567 H         1 UNK         0.0775 
    109 H109       29.6405  -45.4527  -52.4513 H         1 UNK         0.0775 
    110 H110       29.6460  -41.3851  -54.1354 H         1 UNK         0.0840 
    111 H111       30.6125  -42.2195  -52.9543 H         1 UNK         0.0840 
    112 H112       31.2371  -46.8327  -54.9270 H         1 UNK         0.2987 
    113 H113       30.8548  -48.9076  -57.8355 H         1 UNK         0.0785 
    114 H114       32.6019  -47.4091  -58.7566 H         1 UNK         0.0798 
    115 H115       31.0447  -46.6057  -58.7534 H         1 UNK         0.0798 
    116 H116       32.2377  -46.1909  -57.5320 H         1 UNK         0.0798 
    117 H117       33.2601  -48.4533  -56.6853 H         1 UNK         0.3079 
    118 H118       33.3438  -51.4388  -55.0891 H         1 UNK         0.0794 
    119 H119       35.6140  -50.5699  -55.5067 H         1 UNK         0.0786 
    120 H120       35.0055  -48.9458  -55.7839 H         1 UNK         0.0786 
    121 H121       34.6054  -50.2537  -56.9014 H         1 UNK         0.0786 
    122 H122       34.1873  -49.1076  -53.4632 H         1 UNK         0.3032 
    123 H123       32.4498  -49.9791  -50.6860 H         1 UNK         0.1094 
    124 H124       34.2074  -51.6851  -50.1944 H         1 UNK         0.0794 
    125 H125       35.4551  -50.5951  -50.7816 H         1 UNK         0.0794 
    126 H126       34.5286  -50.1896  -49.3352 H         1 UNK         0.0794 
    127 H127       34.6966  -48.2461  -50.9758 H         1 UNK         0.3016 
@<TRIPOS>BOND
     1    1    2 1    
     2    1   67 1    
     3    1   68 1    
     4    1   69 1    
     5    2    3 2    
     6    2    4 am   BACKBONE|DICT|INTERRES
     7    4    5 1    
     8    4   70 1    
     9    5    6 1    
    10    5   65 1    
    11    5   71 1    
    12    6    7 1    
    13    6   72 1    
    14    6   73 1    
    15    7    8 1    
    16    8    9 1    
    17    8   74 1    
    18    8   75 1    
    19    9   10 ar   
    20    9   14 ar   
    21   10   11 ar   
    22   10   76 1    
    23   11   12 ar   
    24   11   48 1    
    25   12   13 ar   
    26   12   77 1    
    27   13   14 ar   
    28   13   15 1    
    29   14   78 1    
    30   15   16 1    
    31   15   79 1    
    32   15   80 1    
    33   16   17 1    
    34   17   18 1    
    35   17   81 1    
    36   17   82 1    
    37   18   19 1    
    38   18   22 1    
    39   18   83 1    
    40   19   20 am   BACKBONE|DICT|INTERRES
    41   19   21 2    
    42   20   84 1    
    43   20   85 1    
    44   22   23 am   BACKBONE|DICT|INTERRES
    45   22   86 1    
    46   23   24 2    
    47   23   25 1    
    48   25   26 1    
    49   25   27 1    
    50   25   87 1    
    51   26   88 1    
    52   26   89 1    
    53   26   90 1    
    54   27   28 am   BACKBONE|DICT|INTERRES
    55   27   91 1    
    56   28   29 2    
    57   28   30 1    
    58   30   31 1    
    59   30   32 1    
    60   30   92 1    
    61   31   93 1    
    62   31   94 1    
    63   31   95 1    
    64   32   33 am   BACKBONE|DICT|INTERRES
    65   32   96 1    
    66   33   34 2    
    67   33   35 1    
    68   35   36 1    
    69   35   37 1    
    70   35   97 1    
    71   36   98 1    
    72   36   99 1    
    73   36  100 1    
    74   37   38 am   BACKBONE|DICT|INTERRES
    75   37  101 1    
    76   38   39 2    
    77   38   40 1    
    78   40   41 1    
    79   40   42 1    
    80   40  102 1    
    81   41  103 1    
    82   41  104 1    
    83   41  105 1    
    84   42   43 am   BACKBONE|DICT|INTERRES
    85   42  106 1    
    86   43   44 2    
    87   43   45 1    
    88   45   46 1    
    89   45   49 1    
    90   45  107 1    
    91   46   47 1    
    92   46  108 1    
    93   46  109 1    
    94   47   48 1    
    95   48  110 1    
    96   48  111 1    
    97   49   50 am   BACKBONE|DICT|INTERRES
    98   49  112 1    
    99   50   51 2    
   100   50   52 1    
   101   52   53 1    
   102   52   54 1    
   103   52  113 1    
   104   53  114 1    
   105   53  115 1    
   106   53  116 1    
   107   54   55 am   BACKBONE|DICT|INTERRES
   108   54  117 1    
   109   55   56 2    
   110   55   57 1    
   111   57   58 1    
   112   57   59 1    
   113   57  118 1    
   114   58  119 1    
   115   58  120 1    
   116   58  121 1    
   117   59   60 am   BACKBONE|DICT|INTERRES
   118   59  122 1    
   119   60   61 2    
   120   60   62 1    
   121   62   63 1    
   122   62   64 1    
   123   62  123 1    
   124   63  124 1    
   125   63  125 1    
   126   63  126 1    
   127   64   65 am   BACKBONE|DICT|INTERRES
   128   64  127 1    
   129   65   66 2    
@<TRIPOS>SUBSTRUCTURE
     1 UNK         1 GROUP             0       ****    0 ROOT    
