@<TRIPOS>MOLECULE
3R134
127   129    1
SMALL
USER_CHARGES


@<TRIPOS>ATOM
      1 CA         30.6127  -44.2037  -47.3495 C.3       0 UNK        -0.1968 
      2 C          31.7089  -44.8979  -48.1447 C.2       0 UNK         0.4852 
      3 O          32.5282  -45.6103  -47.5618 O.2       0 UNK        -0.5359 
      4 N          31.7349  -44.6894  -49.4677 N.am      1 UNK        -0.4300 
      5 CA         32.6702  -45.3280  -50.3971 C.3       1 UNK         0.0863 
      6 C6         32.7084  -44.5716  -51.7465 C.3       11 UNK        -0.0953 
      7 S7         34.1572  -45.0073  -52.7647 S.3       11 UNK        -0.2369 
      8 C8         34.2570  -43.5691  -53.8771 C.3       11 UNK         0.0226 
      9 C9         33.2829  -43.6852  -55.0409 C.ar      11 UNK        -0.0699 
     10 C10        33.7020  -44.2503  -56.2472 C.ar      11 UNK        -0.0804 
     11 C11        32.8214  -44.3530  -57.3267 C.ar      11 UNK        -0.0871 
     12 C12        31.5057  -43.9039  -57.1883 C.ar      11 UNK        -0.1008 
     13 C13        31.0646  -43.3381  -55.9823 C.ar      11 UNK        -0.0735 
     14 C14        31.9698  -43.2206  -54.9210 C.ar      11 UNK        -0.0945 
     15 C15        29.6301  -42.8516  -55.7585 C.3       11 UNK         0.0169 
     16 S16        28.4614  -43.1624  -57.1275 S.3       11 UNK        -0.2669 
     17 C17        26.8611  -42.9073  -56.2859 C.3       11 UNK        -0.0850 
     18 CA         26.2323  -44.2425  -55.7789 C.3       10 UNK         0.0855 
     19 C          24.9301  -44.0401  -54.9437 C.2       10 UNK         0.5543 
     20 N          24.8983  -43.0603  -54.0491 N.am      10 UNK        -0.7343 
     21 O          23.9562  -44.7827  -55.0582 O.2       10 UNK        -0.5027 
     22 N          26.1024  -45.2566  -56.8432 N.am      10 UNK        -0.4495 
     23 C          25.3413  -45.1460  -57.9399 C.2       10 UNK         0.4903 
     24 O          24.6236  -44.1737  -58.1808 O.2       10 UNK        -0.4860 
     25 CA         25.3886  -46.2828  -58.9719 C.3       9 UNK         0.0227 
     26 CB         26.2090  -45.8397  -60.1965 C.3       9 UNK        -0.1964 
     27 N          25.9605  -47.5342  -58.4614 N.am      9 UNK        -0.4231 
     28 C          25.2858  -48.6900  -58.3830 C.2       9 UNK         0.5014 
     29 O          24.0682  -48.7884  -58.5454 O.2       9 UNK        -0.5270 
     30 CA         26.1066  -49.9697  -58.1529 C.3       8 UNK         0.0284 
     31 CB         26.9355  -50.3112  -59.4029 C.3       8 UNK        -0.1977 
     32 N          26.9817  -49.9093  -56.9833 N.am      8 UNK        -0.4342 
     33 C          26.5607  -50.0087  -55.7152 C.2       8 UNK         0.5039 
     34 O          25.3791  -50.1355  -55.3909 O.2       8 UNK        -0.5547 
     35 CA         27.6413  -49.9670  -54.6191 C.3       7 UNK         0.0281 
     36 CB         28.3172  -51.3381  -54.4565 C.3       7 UNK        -0.1963 
     37 N          28.6574  -48.9445  -54.8697 N.am      7 UNK        -0.4444 
     38 C          28.4127  -47.6281  -54.8633 C.2       7 UNK         0.5104 
     39 O          27.3231  -47.1361  -54.5755 O.2       7 UNK        -0.5100 
     40 CA         29.5663  -46.7077  -55.2868 C.3       6 UNK         0.0396 
     41 CB         30.5089  -46.4458  -54.1052 C.3       6 UNK        -0.1801 
     42 N          30.3166  -47.2463  -56.4227 N.am      6 UNK        -0.4747 
     43 C          29.8195  -47.3675  -57.6619 C.2       6 UNK         0.5012 
     44 O          28.6834  -47.0133  -57.9781 O.2       6 UNK        -0.5003 
     45 CA         30.7037  -48.0657  -58.7137 C.3       5 UNK         0.0782 
     46 C46        31.6189  -47.0708  -59.4755 C.3       11 UNK        -0.0868 
     47 S47        33.2274  -46.7410  -58.6669 S.3       11 UNK        -0.2515 
     48 C48        33.3091  -44.9249  -58.6481 C.3       11 UNK         0.0199 
     49 N          31.4450  -49.2003  -58.1561 N.am      5 UNK        -0.4607 
     50 C          30.8926  -50.3149  -57.6629 C.2       4 UNK         0.5031 
     51 O          29.6860  -50.5492  -57.6922 O.2       4 UNK        -0.5119 
     52 CA         31.8436  -51.3028  -56.9661 C.3       4 UNK         0.0263 
     53 CB         32.4984  -52.2395  -57.9931 C.3       4 UNK        -0.1967 
     54 N          32.8809  -50.6341  -56.1701 N.am      4 UNK        -0.4237 
     55 C          32.6292  -49.8414  -55.1189 C.2       3 UNK         0.4908 
     56 O          31.4922  -49.5963  -54.7108 O.2       3 UNK        -0.5102 
     57 CA         33.8456  -49.1627  -54.4640 C.3       3 UNK         0.0241 
     58 CB         34.2203  -47.8843  -55.2319 C.3       3 UNK        -0.1971 
     59 N          33.6143  -48.8152  -53.0596 N.am      3 UNK        -0.4139 
     60 C          33.4271  -49.6980  -52.0682 C.2       2 UNK         0.5016 
     61 O          33.4588  -50.9193  -52.2319 O.2       2 UNK        -0.5319 
     62 CA         33.2031  -49.1427  -50.6482 C.3       2 UNK         0.0286 
     63 CB         34.1917  -49.7738  -49.6505 C.3       2 UNK        -0.1963 
     64 N          33.3348  -47.6833  -50.5664 N.am      2 UNK        -0.4790 
     65 C          32.3118  -46.8197  -50.5745 C.2       1 UNK         0.5024 
     66 O          31.1335  -47.1523  -50.7201 O.2       1 UNK        -0.4888 
     67 H67        29.9688  -43.5964  -47.9855 H         1 UNK         0.0892 
     68 H68        29.9907  -44.9425  -46.8448 H         1 UNK         0.0892 
     69 H69        31.0519  -43.5537  -46.5932 H         1 UNK         0.0892 
     70 H70        31.0156  -44.1216  -49.8917 H         1 UNK         0.3107 
     71 H71        33.6628  -45.2613  -49.9452 H         1 UNK         0.0773 
     72 H72        31.7947  -44.7308  -52.3172 H         1 UNK         0.0680 
     73 H73        32.7561  -43.4987  -51.5537 H         1 UNK         0.0680 
     74 H74        35.2774  -43.4975  -54.2566 H         1 UNK         0.0650 
     75 H75        34.0796  -42.6478  -53.3207 H         1 UNK         0.0650 
     76 H76        34.7179  -44.6073  -56.3486 H         1 UNK         0.1397 
     77 H77        30.8358  -44.0023  -58.0298 H         1 UNK         0.1363 
     78 H78        31.6449  -42.7817  -53.9876 H         1 UNK         0.1355 
     79 H79        29.6474  -41.7801  -55.5542 H         1 UNK         0.0707 
     80 H80        29.2440  -43.3354  -54.8599 H         1 UNK         0.0707 
     81 H81        27.0144  -42.2046  -55.4662 H         1 UNK         0.1034 
     82 H82        26.1847  -42.4051  -56.9791 H         1 UNK         0.1034 
     83 H83        26.9398  -44.6672  -55.0690 H         1 UNK         0.0482 
     84 H84        24.0643  -42.9362  -53.4964 H         1 UNK         0.3460 
     85 H85        25.6879  -42.4530  -53.9003 H         1 UNK         0.3460 
     86 H86        26.6413  -46.0994  -56.7055 H         1 UNK         0.2989 
     87 H87        24.3610  -46.4413  -59.3049 H         1 UNK         0.0559 
     88 H88        27.2468  -45.6323  -59.9318 H         1 UNK         0.0848 
     89 H89        25.7979  -44.9300  -60.6362 H         1 UNK         0.0848 
     90 H90        26.2067  -46.6037  -60.9740 H         1 UNK         0.0848 
     91 H91        26.9648  -47.5244  -58.2880 H         1 UNK         0.3144 
     92 H92        25.3994  -50.7877  -57.9978 H         1 UNK         0.0727 
     93 H93        27.7008  -49.5602  -59.6009 H         1 UNK         0.0790 
     94 H94        26.3014  -50.3734  -60.2884 H         1 UNK         0.0790 
     95 H95        27.4349  -51.2743  -59.2946 H         1 UNK         0.0790 
     96 H96        27.9835  -49.8975  -57.1618 H         1 UNK         0.3215 
     97 H97        27.1474  -49.7197  -53.6768 H         1 UNK         0.0863 
     98 H98        29.0496  -51.3257  -53.6489 H         1 UNK         0.0808 
     99 H99        28.8303  -51.6488  -55.3667 H         1 UNK         0.0808 
    100 H100       27.5823  -52.1080  -54.2179 H         1 UNK         0.0808 
    101 H101       29.6092  -49.2573  -55.0450 H         1 UNK         0.3118 
    102 H102       29.1409  -45.7532  -55.5991 H         1 UNK         0.0546 
    103 H103       29.9960  -45.8740  -53.3315 H         1 UNK         0.0828 
    104 H104       31.3844  -45.8776  -54.4131 H         1 UNK         0.0828 
    105 H105       30.8591  -47.3663  -53.6397 H         1 UNK         0.0828 
    106 H106       31.2403  -47.6056  -56.2335 H         1 UNK         0.3005 
    107 H107       30.0078  -48.4802  -59.4470 H         1 UNK         0.1257 
    108 H108       31.0936  -46.1355  -59.6785 H         1 UNK         0.0775 
    109 H109       31.8467  -47.4871  -60.4579 H         1 UNK         0.0775 
    110 H110       34.3460  -44.6259  -58.8089 H         1 UNK         0.0840 
    111 H111       32.7493  -44.5057  -59.4855 H         1 UNK         0.0840 
    112 H112       32.4451  -49.0773  -58.0906 H         1 UNK         0.2987 
    113 H113       31.2432  -51.9092  -56.2846 H         1 UNK         0.0785 
    114 H114       31.7421  -52.7586  -58.5838 H         1 UNK         0.0798 
    115 H115       33.1043  -53.0028  -57.5045 H         1 UNK         0.0798 
    116 H116       33.1387  -51.6959  -58.6891 H         1 UNK         0.0798 
    117 H117       33.8391  -50.7839  -56.4529 H         1 UNK         0.3079 
    118 H118       34.6890  -49.8555  -54.5000 H         1 UNK         0.0794 
    119 H119       33.4028  -47.1622  -55.2445 H         1 UNK         0.0786 
    120 H120       34.4750  -48.1086  -56.2680 H         1 UNK         0.0786 
    121 H121       35.0886  -47.3946  -54.7905 H         1 UNK         0.0786 
    122 H122       33.5566  -47.8328  -52.8357 H         1 UNK         0.3032 
    123 H123       32.1938  -49.4400  -50.3537 H         1 UNK         0.1094 
    124 H124       35.2270  -49.5526  -49.9127 H         1 UNK         0.0794 
    125 H125       34.0167  -49.4118  -48.6371 H         1 UNK         0.0794 
    126 H126       34.0868  -50.8593  -49.6243 H         1 UNK         0.0794 
    127 H127       34.2741  -47.3233  -50.4643 H         1 UNK         0.3016 
@<TRIPOS>BOND
     1    1    2 1    
     2    1   67 1    
     3    1   68 1    
     4    1   69 1    
     5    2    3 2    
     6    2    4 am   BACKBONE|DICT|INTERRES
     7    4    5 1    
     8    4   70 1    
     9    5    6 1    
    10    5   65 1    
    11    5   71 1    
    12    6    7 1    
    13    6   72 1    
    14    6   73 1    
    15    7    8 1    
    16    8    9 1    
    17    8   74 1    
    18    8   75 1    
    19    9   10 ar   
    20    9   14 ar   
    21   10   11 ar   
    22   10   76 1    
    23   11   12 ar   
    24   11   48 1    
    25   12   13 ar   
    26   12   77 1    
    27   13   14 ar   
    28   13   15 1    
    29   14   78 1    
    30   15   16 1    
    31   15   79 1    
    32   15   80 1    
    33   16   17 1    
    34   17   18 1    
    35   17   81 1    
    36   17   82 1    
    37   18   19 1    
    38   18   22 1    
    39   18   83 1    
    40   19   20 am   BACKBONE|DICT|INTERRES
    41   19   21 2    
    42   20   84 1    
    43   20   85 1    
    44   22   23 am   BACKBONE|DICT|INTERRES
    45   22   86 1    
    46   23   24 2    
    47   23   25 1    
    48   25   26 1    
    49   25   27 1    
    50   25   87 1    
    51   26   88 1    
    52   26   89 1    
    53   26   90 1    
    54   27   28 am   BACKBONE|DICT|INTERRES
    55   27   91 1    
    56   28   29 2    
    57   28   30 1    
    58   30   31 1    
    59   30   32 1    
    60   30   92 1    
    61   31   93 1    
    62   31   94 1    
    63   31   95 1    
    64   32   33 am   BACKBONE|DICT|INTERRES
    65   32   96 1    
    66   33   34 2    
    67   33   35 1    
    68   35   36 1    
    69   35   37 1    
    70   35   97 1    
    71   36   98 1    
    72   36   99 1    
    73   36  100 1    
    74   37   38 am   BACKBONE|DICT|INTERRES
    75   37  101 1    
    76   38   39 2    
    77   38   40 1    
    78   40   41 1    
    79   40   42 1    
    80   40  102 1    
    81   41  103 1    
    82   41  104 1    
    83   41  105 1    
    84   42   43 am   BACKBONE|DICT|INTERRES
    85   42  106 1    
    86   43   44 2    
    87   43   45 1    
    88   45   46 1    
    89   45   49 1    
    90   45  107 1    
    91   46   47 1    
    92   46  108 1    
    93   46  109 1    
    94   47   48 1    
    95   48  110 1    
    96   48  111 1    
    97   49   50 am   BACKBONE|DICT|INTERRES
    98   49  112 1    
    99   50   51 2    
   100   50   52 1    
   101   52   53 1    
   102   52   54 1    
   103   52  113 1    
   104   53  114 1    
   105   53  115 1    
   106   53  116 1    
   107   54   55 am   BACKBONE|DICT|INTERRES
   108   54  117 1    
   109   55   56 2    
   110   55   57 1    
   111   57   58 1    
   112   57   59 1    
   113   57  118 1    
   114   58  119 1    
   115   58  120 1    
   116   58  121 1    
   117   59   60 am   BACKBONE|DICT|INTERRES
   118   59  122 1    
   119   60   61 2    
   120   60   62 1    
   121   62   63 1    
   122   62   64 1    
   123   62  123 1    
   124   63  124 1    
   125   63  125 1    
   126   63  126 1    
   127   64   65 am   BACKBONE|DICT|INTERRES
   128   64  127 1    
   129   65   66 2    
@<TRIPOS>SUBSTRUCTURE
     1 UNK         1 GROUP             0       ****    0 ROOT    
