@<TRIPOS>MOLECULE
3R134
127   129    1
SMALL
USER_CHARGES


@<TRIPOS>ATOM
      1 CA         36.7903  -43.8439  -49.1429 C.3       0 UNK        -0.1968 
      2 C          35.8073  -44.3248  -50.2006 C.2       0 UNK         0.4852 
      3 O          34.6276  -43.9822  -50.1237 O.2       0 UNK        -0.5359 
      4 N          36.2960  -45.1241  -51.1635 N.am      1 UNK        -0.4300 
      5 CA         35.6005  -45.7032  -52.3278 C.3       1 UNK         0.0863 
      6 C6         35.5334  -44.7657  -53.5711 C.3       11 UNK        -0.0953 
      7 S7         34.6406  -43.1897  -53.3477 S.3       11 UNK        -0.2369 
      8 C8         33.8235  -42.9708  -54.9676 C.3       11 UNK         0.0226 
      9 C9         32.4433  -43.6167  -55.1059 C.ar      11 UNK        -0.0699 
     10 C10        31.6005  -43.8206  -54.0038 C.ar      11 UNK        -0.0804 
     11 C11        30.3130  -44.3408  -54.1722 C.ar      11 UNK        -0.0871 
     12 C12        29.8606  -44.6369  -55.4585 C.ar      11 UNK        -0.1008 
     13 C13        30.6966  -44.4771  -56.5631 C.ar      11 UNK        -0.0735 
     14 C14        31.9827  -43.9590  -56.3834 C.ar      11 UNK        -0.0945 
     15 C15        30.1930  -44.8693  -57.9422 C.3       11 UNK         0.0169 
     16 S16        29.3559  -43.4686  -58.7390 S.3       11 UNK        -0.2669 
     17 C17        28.2157  -44.3192  -59.8824 C.3       11 UNK        -0.0850 
     18 CA         26.7435  -44.2349  -59.3915 C.3       10 UNK         0.0855 
     19 C          25.7170  -44.5410  -60.5228 C.2       10 UNK         0.5543 
     20 N          24.6126  -45.2298  -60.2605 N.am      10 UNK        -0.7343 
     21 O          25.9056  -44.1199  -61.6618 O.2       10 UNK        -0.5027 
     22 N          26.5262  -45.0626  -58.1932 N.am      10 UNK        -0.4495 
     23 C          26.0909  -44.6182  -57.0062 C.2       10 UNK         0.4903 
     24 O          25.9248  -43.4259  -56.7443 O.2       10 UNK        -0.4860 
     25 CA         25.7787  -45.6793  -55.9226 C.3       9 UNK         0.0227 
     26 CB         24.7417  -45.1864  -54.8922 C.3       9 UNK        -0.1964 
     27 N          25.3847  -46.9915  -56.4535 N.am      9 UNK        -0.4231 
     28 C          24.3898  -47.2469  -57.3181 C.2       9 UNK         0.5014 
     29 O          23.6109  -46.3860  -57.7327 O.2       9 UNK        -0.5270 
     30 CA         24.2848  -48.6896  -57.8568 C.3       8 UNK         0.0284 
     31 CB         23.4713  -48.7688  -59.1657 C.3       8 UNK        -0.1977 
     32 N          25.5780  -49.3632  -58.0417 N.am      8 UNK        -0.4342 
     33 C          26.6635  -48.9221  -58.6964 C.2       8 UNK         0.5039 
     34 O          26.7555  -47.8005  -59.1996 O.2       8 UNK        -0.5547 
     35 CA         27.8589  -49.8948  -58.7523 C.3       7 UNK         0.0281 
     36 CB         29.0612  -49.3092  -59.5170 C.3       7 UNK        -0.1963 
     37 N          28.2837  -50.2870  -57.4048 N.am      7 UNK        -0.4444 
     38 C          27.6689  -51.2070  -56.6434 C.2       7 UNK         0.5104 
     39 O          26.7157  -51.8782  -57.0410 O.2       7 UNK        -0.5100 
     40 CA         28.1355  -51.3738  -55.1838 C.3       6 UNK         0.0396 
     41 CB         29.0985  -52.5645  -55.0636 C.3       6 UNK        -0.1801 
     42 N          28.7734  -50.1801  -54.6257 N.am      6 UNK        -0.4747 
     43 C          28.1990  -48.9734  -54.4969 C.2       6 UNK         0.5012 
     44 O          27.0142  -48.7502  -54.7510 O.2       6 UNK        -0.5003 
     45 CA         29.1156  -47.8007  -54.0914 C.3       5 UNK         0.0782 
     46 C46        28.8538  -47.3661  -52.6289 C.3       11 UNK        -0.0868 
     47 S47        29.9381  -46.0307  -52.0115 S.3       11 UNK        -0.2515 
     48 C48        29.4136  -44.5685  -52.9644 C.3       11 UNK         0.0199 
     49 N          30.5341  -48.0475  -54.3823 N.am      5 UNK        -0.4607 
     50 C          31.0378  -48.2329  -55.6125 C.2       4 UNK         0.5031 
     51 O          30.3479  -48.2301  -56.6310 O.2       4 UNK        -0.5119 
     52 CA         32.5403  -48.5244  -55.7361 C.3       4 UNK         0.0263 
     53 CB         33.3043  -47.2605  -56.1578 C.3       4 UNK        -0.1967 
     54 N          33.1081  -49.0647  -54.4985 N.am      4 UNK        -0.4237 
     55 C          32.9612  -50.3390  -54.1025 C.2       3 UNK         0.4908 
     56 O          32.3520  -51.1858  -54.7561 O.2       3 UNK        -0.5102 
     57 CA         33.5843  -50.7496  -52.7555 C.3       3 UNK         0.0241 
     58 CB         34.9671  -51.3836  -52.9765 C.3       3 UNK        -0.1971 
     59 N          33.7086  -49.6407  -51.8082 N.am      3 UNK        -0.4139 
     60 C          32.6779  -49.0368  -51.2002 C.2       2 UNK         0.5016 
     61 O          31.5068  -49.3954  -51.3223 O.2       2 UNK        -0.5319 
     62 CA         33.0105  -47.8010  -50.3431 C.3       2 UNK         0.0286 
     63 CB         33.2225  -48.2038  -48.8752 C.3       2 UNK        -0.1963 
     64 N          34.1772  -47.0395  -50.8115 N.am      2 UNK        -0.4790 
     65 C          34.2881  -46.4629  -52.0194 C.2       1 UNK         0.5024 
     66 O          33.4320  -46.5854  -52.8940 O.2       1 UNK        -0.4888 
     67 H67        36.8333  -42.7550  -49.1405 H         1 UNK         0.0892 
     68 H68        37.7978  -44.2214  -49.3164 H         1 UNK         0.0892 
     69 H69        36.4702  -44.1741  -48.1550 H         1 UNK         0.0892 
     70 H70        37.2784  -45.3579  -51.1183 H         1 UNK         0.3107 
     71 H71        36.2662  -46.5124  -52.6321 H         1 UNK         0.0773 
     72 H72        35.1096  -45.2994  -54.4233 H         1 UNK         0.0680 
     73 H73        36.5493  -44.5108  -53.8755 H         1 UNK         0.0680 
     74 H74        33.7050  -41.9003  -55.1385 H         1 UNK         0.0650 
     75 H75        34.4917  -43.3312  -55.7513 H         1 UNK         0.0650 
     76 H76        31.9368  -43.5726  -53.0071 H         1 UNK         0.1397 
     77 H77        28.8560  -44.9980  -55.6114 H         1 UNK         0.1363 
     78 H78        32.6202  -43.8094  -57.2440 H         1 UNK         0.1355 
     79 H79        29.5061  -45.7131  -57.8524 H         1 UNK         0.0707 
     80 H80        31.0177  -45.2093  -58.5703 H         1 UNK         0.0707 
     81 H81        28.5154  -45.3584  -60.0307 H         1 UNK         0.1034 
     82 H82        28.3326  -43.8334  -60.8528 H         1 UNK         0.1034 
     83 H83        26.5483  -43.1894  -59.1476 H         1 UNK         0.0482 
     84 H84        23.9589  -45.4061  -61.0057 H         1 UNK         0.3460 
     85 H85        24.4085  -45.5614  -59.3234 H         1 UNK         0.3460 
     86 H86        26.5936  -46.0648  -58.3582 H         1 UNK         0.2989 
     87 H87        26.7117  -45.8463  -55.3860 H         1 UNK         0.0559 
     88 H88        23.7872  -44.9495  -55.3635 H         1 UNK         0.0848 
     89 H89        25.0873  -44.2848  -54.3850 H         1 UNK         0.0848 
     90 H90        24.5593  -45.9370  -54.1232 H         1 UNK         0.0848 
     91 H91        25.9540  -47.7720  -56.1378 H         1 UNK         0.3144 
     92 H92        23.7479  -49.2567  -57.0950 H         1 UNK         0.0727 
     93 H93        23.3676  -49.7989  -59.5067 H         1 UNK         0.0790 
     94 H94        23.9441  -48.1977  -59.9658 H         1 UNK         0.0790 
     95 H95        22.4641  -48.3725  -59.0310 H         1 UNK         0.0790 
     96 H96        25.6510  -50.2925  -57.6365 H         1 UNK         0.3215 
     97 H97        27.5278  -50.7844  -59.2927 H         1 UNK         0.0863 
     98 H98        29.8993  -50.0057  -59.5367 H         1 UNK         0.0808 
     99 H99        29.4096  -48.3764  -59.0729 H         1 UNK         0.0808 
    100 H100       28.7939  -49.0926  -60.5520 H         1 UNK         0.0808 
    101 H101       29.0256  -49.7267  -56.9956 H         1 UNK         0.3118 
    102 H102       27.2510  -51.5852  -54.5796 H         1 UNK         0.0546 
    103 H103       28.6332  -53.4814  -55.4281 H         1 UNK         0.0828 
    104 H104       29.3892  -52.7398  -54.0277 H         1 UNK         0.0828 
    105 H105       30.0080  -52.4077  -55.6450 H         1 UNK         0.0828 
    106 H106       29.7574  -50.2570  -54.4059 H         1 UNK         0.3005 
    107 H107       28.8070  -46.9830  -54.7358 H         1 UNK         0.1257 
    108 H108       28.9875  -48.2179  -51.9590 H         1 UNK         0.0775 
    109 H109       27.8165  -47.0482  -52.5060 H         1 UNK         0.0775 
    110 H110       28.3683  -44.6672  -53.2612 H         1 UNK         0.0840 
    111 H111       29.4624  -43.6933  -52.3150 H         1 UNK         0.0840 
    112 H112       31.1611  -48.0320  -53.5894 H         1 UNK         0.2987 
    113 H113       32.6649  -49.2675  -56.5269 H         1 UNK         0.0785 
    114 H114       32.9547  -46.9033  -57.1273 H         1 UNK         0.0798 
    115 H115       34.3743  -47.4479  -56.2455 H         1 UNK         0.0798 
    116 H116       33.1594  -46.4476  -55.4472 H         1 UNK         0.0798 
    117 H117       33.5428  -48.3932  -53.8760 H         1 UNK         0.3079 
    118 H118       32.9304  -51.5025  -52.3099 H         1 UNK         0.0794 
    119 H119       35.3889  -51.7530  -52.0415 H         1 UNK         0.0786 
    120 H120       35.6740  -50.6739  -53.4084 H         1 UNK         0.0786 
    121 H121       34.9018  -52.2335  -53.6577 H         1 UNK         0.0786 
    122 H122       34.6368  -49.2823  -51.6374 H         1 UNK         0.3032 
    123 H123       32.1469  -47.1352  -50.3925 H         1 UNK         0.1094 
    124 H124       33.3563  -47.3286  -48.2391 H         1 UNK         0.0794 
    125 H125       32.3591  -48.7502  -48.4926 H         1 UNK         0.0794 
    126 H126       34.0954  -48.8464  -48.7534 H         1 UNK         0.0794 
    127 H127       34.9237  -46.8948  -50.1471 H         1 UNK         0.3016 
@<TRIPOS>BOND
     1    1    2 1    
     2    1   67 1    
     3    1   68 1    
     4    1   69 1    
     5    2    3 2    
     6    2    4 am   BACKBONE|DICT|INTERRES
     7    4    5 1    
     8    4   70 1    
     9    5    6 1    
    10    5   65 1    
    11    5   71 1    
    12    6    7 1    
    13    6   72 1    
    14    6   73 1    
    15    7    8 1    
    16    8    9 1    
    17    8   74 1    
    18    8   75 1    
    19    9   10 ar   
    20    9   14 ar   
    21   10   11 ar   
    22   10   76 1    
    23   11   12 ar   
    24   11   48 1    
    25   12   13 ar   
    26   12   77 1    
    27   13   14 ar   
    28   13   15 1    
    29   14   78 1    
    30   15   16 1    
    31   15   79 1    
    32   15   80 1    
    33   16   17 1    
    34   17   18 1    
    35   17   81 1    
    36   17   82 1    
    37   18   19 1    
    38   18   22 1    
    39   18   83 1    
    40   19   20 am   BACKBONE|DICT|INTERRES
    41   19   21 2    
    42   20   84 1    
    43   20   85 1    
    44   22   23 am   BACKBONE|DICT|INTERRES
    45   22   86 1    
    46   23   24 2    
    47   23   25 1    
    48   25   26 1    
    49   25   27 1    
    50   25   87 1    
    51   26   88 1    
    52   26   89 1    
    53   26   90 1    
    54   27   28 am   BACKBONE|DICT|INTERRES
    55   27   91 1    
    56   28   29 2    
    57   28   30 1    
    58   30   31 1    
    59   30   32 1    
    60   30   92 1    
    61   31   93 1    
    62   31   94 1    
    63   31   95 1    
    64   32   33 am   BACKBONE|DICT|INTERRES
    65   32   96 1    
    66   33   34 2    
    67   33   35 1    
    68   35   36 1    
    69   35   37 1    
    70   35   97 1    
    71   36   98 1    
    72   36   99 1    
    73   36  100 1    
    74   37   38 am   BACKBONE|DICT|INTERRES
    75   37  101 1    
    76   38   39 2    
    77   38   40 1    
    78   40   41 1    
    79   40   42 1    
    80   40  102 1    
    81   41  103 1    
    82   41  104 1    
    83   41  105 1    
    84   42   43 am   BACKBONE|DICT|INTERRES
    85   42  106 1    
    86   43   44 2    
    87   43   45 1    
    88   45   46 1    
    89   45   49 1    
    90   45  107 1    
    91   46   47 1    
    92   46  108 1    
    93   46  109 1    
    94   47   48 1    
    95   48  110 1    
    96   48  111 1    
    97   49   50 am   BACKBONE|DICT|INTERRES
    98   49  112 1    
    99   50   51 2    
   100   50   52 1    
   101   52   53 1    
   102   52   54 1    
   103   52  113 1    
   104   53  114 1    
   105   53  115 1    
   106   53  116 1    
   107   54   55 am   BACKBONE|DICT|INTERRES
   108   54  117 1    
   109   55   56 2    
   110   55   57 1    
   111   57   58 1    
   112   57   59 1    
   113   57  118 1    
   114   58  119 1    
   115   58  120 1    
   116   58  121 1    
   117   59   60 am   BACKBONE|DICT|INTERRES
   118   59  122 1    
   119   60   61 2    
   120   60   62 1    
   121   62   63 1    
   122   62   64 1    
   123   62  123 1    
   124   63  124 1    
   125   63  125 1    
   126   63  126 1    
   127   64   65 am   BACKBONE|DICT|INTERRES
   128   64  127 1    
   129   65   66 2    
@<TRIPOS>SUBSTRUCTURE
     1 UNK         1 GROUP             0       ****    0 ROOT    
