@<TRIPOS>MOLECULE
3R134
127   129    1
SMALL
USER_CHARGES


@<TRIPOS>ATOM
      1 CA         32.2440  -47.9315  -57.5896 C.3       0 UNK        -0.1968 
      2 C          33.2361  -47.0397  -56.8607 C.2       0 UNK         0.4852 
      3 O          34.3081  -46.7545  -57.3952 O.2       0 UNK        -0.5359 
      4 N          32.8976  -46.6254  -55.6324 N.am      1 UNK        -0.4300 
      5 CA         33.6691  -45.7822  -54.7093 C.3       1 UNK         0.0863 
      6 C6         34.0899  -44.4179  -55.3200 C.3       11 UNK        -0.0953 
      7 S7         34.5614  -43.1923  -54.0535 S.3       11 UNK        -0.2369 
      8 C8         33.1120  -42.0893  -54.0306 C.3       11 UNK         0.0226 
      9 C9         31.8259  -42.7894  -53.6050 C.ar      11 UNK        -0.0699 
     10 C10        31.7592  -43.4918  -52.3978 C.ar      11 UNK        -0.0804 
     11 C11        30.5669  -44.0990  -51.9933 C.ar      11 UNK        -0.0871 
     12 C12        29.4285  -43.9784  -52.7945 C.ar      11 UNK        -0.1008 
     13 C13        29.4798  -43.2888  -54.0141 C.ar      11 UNK        -0.0735 
     14 C14        30.6856  -42.7006  -54.4083 C.ar      11 UNK        -0.0945 
     15 C15        28.2609  -43.1188  -54.9215 C.3       11 UNK         0.0169 
     16 S16        26.9288  -44.3359  -54.6611 S.3       11 UNK        -0.2669 
     17 C17        25.8162  -43.9509  -56.0554 C.3       11 UNK        -0.0850 
     18 CA         25.7900  -45.0938  -57.1087 C.3       10 UNK         0.0855 
     19 C          24.6724  -44.9170  -58.1824 C.2       10 UNK         0.5543 
     20 N          24.8625  -45.3624  -59.4197 N.am      10 UNK        -0.7343 
     21 O          23.5988  -44.4007  -57.8830 O.2       10 UNK        -0.5027 
     22 N          27.1199  -45.4093  -57.6552 N.am      10 UNK        -0.4495 
     23 C          27.8700  -44.6182  -58.4356 C.2       10 UNK         0.4903 
     24 O          27.5882  -43.4536  -58.7176 O.2       10 UNK        -0.4860 
     25 CA         29.1452  -45.2456  -59.0299 C.3       9 UNK         0.0227 
     26 CB         30.3610  -44.8938  -58.1555 C.3       9 UNK        -0.1964 
     27 N          29.0552  -46.7030  -59.1882 N.am      9 UNK        -0.4231 
     28 C          28.1555  -47.3495  -59.9454 C.2       9 UNK         0.5014 
     29 O          27.3518  -46.7857  -60.6898 O.2       9 UNK        -0.5270 
     30 CA         28.0778  -48.8800  -59.7852 C.3       8 UNK         0.0284 
     31 CB         29.4324  -49.5402  -59.4422 C.3       8 UNK        -0.1977 
     32 N          27.0435  -49.2667  -58.8138 N.am      8 UNK        -0.4342 
     33 C          26.9715  -48.8950  -57.5278 C.2       8 UNK         0.5039 
     34 O          27.8106  -48.1805  -56.9663 O.2       8 UNK        -0.5547 
     35 CA         25.7557  -49.3803  -56.7292 C.3       7 UNK         0.0281 
     36 CB         25.8923  -50.8652  -56.3460 C.3       7 UNK        -0.1963 
     37 N          25.6976  -48.5569  -55.5298 N.am      7 UNK        -0.4444 
     38 C          24.6615  -48.3532  -54.7122 C.2       7 UNK         0.5104 
     39 O          23.5587  -48.8804  -54.8632 O.2       7 UNK        -0.5100 
     40 CA         24.8988  -47.3672  -53.5451 C.3       6 UNK         0.0396 
     41 CB         24.0607  -47.7106  -52.2955 C.3       6 UNK        -0.1801 
     42 N          26.3215  -47.1839  -53.2062 N.am      6 UNK        -0.4747 
     43 C          27.1603  -48.1174  -52.7329 C.2       6 UNK         0.5012 
     44 O          26.8098  -49.2602  -52.4235 O.2       6 UNK        -0.5003 
     45 CA         28.6429  -47.7272  -52.5993 C.3       5 UNK         0.0782 
     46 C46        28.9400  -47.1967  -51.1736 C.3       11 UNK        -0.0868 
     47 S47        30.6722  -46.6636  -50.9389 S.3       11 UNK        -0.2515 
     48 C48        30.5078  -44.8665  -50.6805 C.3       11 UNK         0.0199 
     49 N          29.3906  -48.9409  -52.9198 N.am      5 UNK        -0.4607 
     50 C          30.3962  -49.0343  -53.7901 C.2       4 UNK         0.5031 
     51 O          30.9313  -48.0719  -54.3423 O.2       4 UNK        -0.5119 
     52 CA         30.8363  -50.4596  -54.1564 C.3       4 UNK         0.0263 
     53 CB         30.3367  -50.8303  -55.5630 C.3       4 UNK        -0.1967 
     54 N          32.2901  -50.6158  -54.0979 N.am      4 UNK        -0.4237 
     55 C          32.9891  -50.7059  -52.9573 C.2       3 UNK         0.4908 
     56 O          32.4860  -50.6516  -51.8349 O.2       3 UNK        -0.5102 
     57 CA         34.5029  -50.8956  -53.0933 C.3       3 UNK         0.0241 
     58 CB         34.8578  -52.2312  -53.7765 C.3       3 UNK        -0.1971 
     59 N          35.0879  -49.7674  -53.8132 N.am      3 UNK        -0.4139 
     60 C          36.3552  -49.3522  -53.6919 C.2       2 UNK         0.5016 
     61 O          37.1978  -49.9179  -52.9935 O.2       2 UNK        -0.5319 
     62 CA         36.7628  -48.0925  -54.4799 C.3       2 UNK         0.0286 
     63 CB         37.5725  -48.4788  -55.7283 C.3       2 UNK        -0.1963 
     64 N          35.6302  -47.2574  -54.8909 N.am      2 UNK        -0.4790 
     65 C          34.8523  -46.5399  -54.0694 C.2       1 UNK         0.5024 
     66 O          35.0192  -46.4936  -52.8503 O.2       1 UNK        -0.4888 
     67 H67        31.2712  -47.9275  -57.0988 H         1 UNK         0.0892 
     68 H68        32.1119  -47.5892  -58.6155 H         1 UNK         0.0892 
     69 H69        32.6124  -48.9563  -57.6191 H         1 UNK         0.0892 
     70 H70        32.0451  -47.0072  -55.2174 H         1 UNK         0.3107 
     71 H71        32.9686  -45.5777  -53.8982 H         1 UNK         0.0773 
     72 H72        34.9266  -44.5384  -56.0101 H         1 UNK         0.0680 
     73 H73        33.2714  -44.0090  -55.9144 H         1 UNK         0.0680 
     74 H74        33.0032  -41.6364  -55.0173 H         1 UNK         0.0650 
     75 H75        33.3088  -41.2706  -53.3375 H         1 UNK         0.0650 
     76 H76        32.6401  -43.5663  -51.7746 H         1 UNK         0.1397 
     77 H77        28.5053  -44.4240  -52.4559 H         1 UNK         0.1363 
     78 H78        30.7306  -42.1532  -55.3401 H         1 UNK         0.1355 
     79 H79        27.8546  -42.1170  -54.7763 H         1 UNK         0.0707 
     80 H80        28.5818  -43.1788  -55.9619 H         1 UNK         0.0707 
     81 H81        24.8204  -43.7946  -55.6369 H         1 UNK         0.1034 
     82 H82        26.0964  -43.0032  -56.5178 H         1 UNK         0.1034 
     83 H83        25.4899  -45.9959  -56.5781 H         1 UNK         0.0482 
     84 H84        24.1263  -45.2510  -60.0984 H         1 UNK         0.3460 
     85 H85        25.7400  -45.7852  -59.6959 H         1 UNK         0.3460 
     86 H86        27.4582  -46.3480  -57.4629 H         1 UNK         0.2989 
     87 H87        29.2944  -44.8121  -60.0207 H         1 UNK         0.0559 
     88 H88        30.4403  -43.8150  -58.0133 H         1 UNK         0.0848 
     89 H89        31.2917  -45.2213  -58.6177 H         1 UNK         0.0848 
     90 H90        30.2931  -45.3447  -57.1641 H         1 UNK         0.0848 
     91 H91        29.5920  -47.2630  -58.5430 H         1 UNK         0.3144 
     92 H92        27.7615  -49.2716  -60.7535 H         1 UNK         0.0727 
     93 H93        29.3650  -50.6250  -59.5250 H         1 UNK         0.0790 
     94 H94        29.7626  -49.3155  -58.4293 H         1 UNK         0.0790 
     95 H95        30.2157  -49.2157  -60.1287 H         1 UNK         0.0790 
     96 H96        26.2903  -49.8274  -59.1892 H         1 UNK         0.3215 
     97 H97        24.8523  -49.2211  -57.3215 H         1 UNK         0.0863 
     98 H98        25.0270  -51.2097  -55.7796 H         1 UNK         0.0808 
     99 H99        26.7793  -51.0426  -55.7368 H         1 UNK         0.0808 
    100 H100       25.9699  -51.4974  -57.2312 H         1 UNK         0.0808 
    101 H101       26.5632  -48.0563  -55.3637 H         1 UNK         0.3118 
    102 H102       24.5552  -46.3971  -53.9068 H         1 UNK         0.0546 
    103 H103       22.9940  -47.6758  -52.5199 H         1 UNK         0.0828 
    104 H104       24.2429  -47.0021  -51.4878 H         1 UNK         0.0828 
    105 H105       24.2774  -48.7113  -51.9212 H         1 UNK         0.0828 
    106 H106       26.6939  -46.2711  -53.4433 H         1 UNK         0.3005 
    107 H107       28.8669  -46.9475  -53.3320 H         1 UNK         0.1257 
    108 H108       28.7317  -47.9699  -50.4313 H         1 UNK         0.0775 
    109 H109       28.2721  -46.3684  -50.9320 H         1 UNK         0.0775 
    110 H110       29.5856  -44.6365  -50.1452 H         1 UNK         0.0840 
    111 H111       31.3170  -44.5410  -50.0250 H         1 UNK         0.0840 
    112 H112       28.9622  -49.7850  -52.5629 H         1 UNK         0.2987 
    113 H113       30.3901  -51.1605  -53.4469 H         1 UNK         0.0785 
    114 H114       30.5499  -51.8731  -55.7986 H         1 UNK         0.0798 
    115 H115       30.7968  -50.2120  -56.3324 H         1 UNK         0.0798 
    116 H116       29.2574  -50.6940  -55.6438 H         1 UNK         0.0798 
    117 H117       32.7739  -50.6832  -54.9804 H         1 UNK         0.3079 
    118 H118       34.9123  -50.9116  -52.0804 H         1 UNK         0.0794 
    119 H119       34.3699  -53.0683  -53.2754 H         1 UNK         0.0786 
    120 H120       35.9313  -52.4183  -53.7426 H         1 UNK         0.0786 
    121 H121       34.5516  -52.2505  -54.8228 H         1 UNK         0.0786 
    122 H122       34.4578  -49.2037  -54.3653 H         1 UNK         0.3032 
    123 H123       37.4016  -47.4965  -53.8242 H         1 UNK         0.1094 
    124 H124       36.9763  -49.0621  -56.4313 H         1 UNK         0.0794 
    125 H125       37.9402  -47.5959  -56.2517 H         1 UNK         0.0794 
    126 H126       38.4425  -49.0801  -55.4601 H         1 UNK         0.0794 
    127 H127       35.4133  -47.2147  -55.8842 H         1 UNK         0.3016 
@<TRIPOS>BOND
     1    1    2 1    
     2    1   67 1    
     3    1   68 1    
     4    1   69 1    
     5    2    3 2    
     6    2    4 am   BACKBONE|DICT|INTERRES
     7    4    5 1    
     8    4   70 1    
     9    5    6 1    
    10    5   65 1    
    11    5   71 1    
    12    6    7 1    
    13    6   72 1    
    14    6   73 1    
    15    7    8 1    
    16    8    9 1    
    17    8   74 1    
    18    8   75 1    
    19    9   10 ar   
    20    9   14 ar   
    21   10   11 ar   
    22   10   76 1    
    23   11   12 ar   
    24   11   48 1    
    25   12   13 ar   
    26   12   77 1    
    27   13   14 ar   
    28   13   15 1    
    29   14   78 1    
    30   15   16 1    
    31   15   79 1    
    32   15   80 1    
    33   16   17 1    
    34   17   18 1    
    35   17   81 1    
    36   17   82 1    
    37   18   19 1    
    38   18   22 1    
    39   18   83 1    
    40   19   20 am   BACKBONE|DICT|INTERRES
    41   19   21 2    
    42   20   84 1    
    43   20   85 1    
    44   22   23 am   BACKBONE|DICT|INTERRES
    45   22   86 1    
    46   23   24 2    
    47   23   25 1    
    48   25   26 1    
    49   25   27 1    
    50   25   87 1    
    51   26   88 1    
    52   26   89 1    
    53   26   90 1    
    54   27   28 am   BACKBONE|DICT|INTERRES
    55   27   91 1    
    56   28   29 2    
    57   28   30 1    
    58   30   31 1    
    59   30   32 1    
    60   30   92 1    
    61   31   93 1    
    62   31   94 1    
    63   31   95 1    
    64   32   33 am   BACKBONE|DICT|INTERRES
    65   32   96 1    
    66   33   34 2    
    67   33   35 1    
    68   35   36 1    
    69   35   37 1    
    70   35   97 1    
    71   36   98 1    
    72   36   99 1    
    73   36  100 1    
    74   37   38 am   BACKBONE|DICT|INTERRES
    75   37  101 1    
    76   38   39 2    
    77   38   40 1    
    78   40   41 1    
    79   40   42 1    
    80   40  102 1    
    81   41  103 1    
    82   41  104 1    
    83   41  105 1    
    84   42   43 am   BACKBONE|DICT|INTERRES
    85   42  106 1    
    86   43   44 2    
    87   43   45 1    
    88   45   46 1    
    89   45   49 1    
    90   45  107 1    
    91   46   47 1    
    92   46  108 1    
    93   46  109 1    
    94   47   48 1    
    95   48  110 1    
    96   48  111 1    
    97   49   50 am   BACKBONE|DICT|INTERRES
    98   49  112 1    
    99   50   51 2    
   100   50   52 1    
   101   52   53 1    
   102   52   54 1    
   103   52  113 1    
   104   53  114 1    
   105   53  115 1    
   106   53  116 1    
   107   54   55 am   BACKBONE|DICT|INTERRES
   108   54  117 1    
   109   55   56 2    
   110   55   57 1    
   111   57   58 1    
   112   57   59 1    
   113   57  118 1    
   114   58  119 1    
   115   58  120 1    
   116   58  121 1    
   117   59   60 am   BACKBONE|DICT|INTERRES
   118   59  122 1    
   119   60   61 2    
   120   60   62 1    
   121   62   63 1    
   122   62   64 1    
   123   62  123 1    
   124   63  124 1    
   125   63  125 1    
   126   63  126 1    
   127   64   65 am   BACKBONE|DICT|INTERRES
   128   64  127 1    
   129   65   66 2    
@<TRIPOS>SUBSTRUCTURE
     1 UNK         1 GROUP             0       ****    0 ROOT    
