@<TRIPOS>MOLECULE
3R134
127   129    1
SMALL
USER_CHARGES


@<TRIPOS>ATOM
      1 CA         27.1380  -47.9542  -50.3310 C.3       0 UNK        -0.1968 
      2 C          28.5596  -47.4293  -50.1949 C.2       0 UNK         0.4852 
      3 O          29.0614  -47.3014  -49.0766 O.2       0 UNK        -0.5359 
      4 N          29.2078  -47.1229  -51.3245 N.am      1 UNK        -0.4300 
      5 CA         30.6054  -46.7034  -51.4206 C.3       1 UNK         0.0863 
      6 C6         30.9079  -46.1615  -52.8401 C.3       11 UNK        -0.0953 
      7 S7         32.3830  -45.0946  -52.9110 S.3       11 UNK        -0.2369 
      8 C8         31.8400  -43.8155  -54.0936 C.3       11 UNK         0.0226 
      9 C9         31.5255  -44.3904  -55.4705 C.ar      11 UNK        -0.0699 
     10 C10        32.5284  -45.0230  -56.2102 C.ar      11 UNK        -0.0804 
     11 C11        32.2570  -45.5773  -57.4646 C.ar      11 UNK        -0.0871 
     12 C12        30.9729  -45.4355  -58.0045 C.ar      11 UNK        -0.1008 
     13 C13        29.9614  -44.7945  -57.2822 C.ar      11 UNK        -0.0735 
     14 C14        30.2396  -44.2837  -56.0105 C.ar      11 UNK        -0.0945 
     15 C15        28.5705  -44.6584  -57.8811 C.3       11 UNK         0.0169 
     16 S16        28.4208  -43.1128  -58.8245 S.3       11 UNK        -0.2669 
     17 C17        26.8288  -43.3629  -59.6825 C.3       11 UNK        -0.0850 
     18 CA         25.7379  -42.3638  -59.2187 C.3       10 UNK         0.0855 
     19 C          24.5053  -42.4022  -60.1695 C.2       10 UNK         0.5543 
     20 N          23.3165  -42.7729  -59.7083 N.am      10 UNK        -0.7343 
     21 O          24.6305  -42.0801  -61.3484 O.2       10 UNK        -0.5027 
     22 N          25.4016  -42.5465  -57.7976 N.am      10 UNK        -0.4495 
     23 C          24.9142  -41.5958  -56.9951 C.2       10 UNK         0.4903 
     24 O          24.7695  -40.4229  -57.3417 O.2       10 UNK        -0.4860 
     25 CA         24.5079  -41.9964  -55.5622 C.3       9 UNK         0.0227 
     26 CB         22.9912  -42.2629  -55.4875 C.3       9 UNK        -0.1964 
     27 N          25.2650  -43.1003  -54.9461 N.am      9 UNK        -0.4231 
     28 C          25.3165  -44.3915  -55.3015 C.2       9 UNK         0.5014 
     29 O          24.7808  -44.8585  -56.3112 O.2       9 UNK        -0.5270 
     30 CA         26.1047  -45.3171  -54.3690 C.3       8 UNK         0.0284 
     31 CB         25.3311  -45.5805  -53.0629 C.3       8 UNK        -0.1977 
     32 N          26.3550  -46.5743  -55.0676 N.am      8 UNK        -0.4342 
     33 C          27.3388  -47.4311  -54.7846 C.2       8 UNK         0.5039 
     34 O          28.1128  -47.2823  -53.8381 O.2       8 UNK        -0.5547 
     35 CA         27.4847  -48.6515  -55.7044 C.3       7 UNK         0.0281 
     36 CB         27.6775  -48.2329  -57.1742 C.3       7 UNK        -0.1963 
     37 N          28.6543  -49.4294  -55.3002 N.am      7 UNK        -0.4444 
     38 C          28.6763  -50.7282  -54.9849 C.2       7 UNK         0.5104 
     39 O          27.6729  -51.4429  -54.9396 O.2       7 UNK        -0.5100 
     40 CA         30.0772  -51.3257  -54.7176 C.3       6 UNK         0.0396 
     41 CB         30.0750  -52.8678  -54.6789 C.3       6 UNK        -0.1801 
     42 N          31.0952  -50.8388  -55.6627 N.am      6 UNK        -0.4747 
     43 C          31.0363  -50.8877  -57.0073 C.2       6 UNK         0.5012 
     44 O          30.1334  -51.4354  -57.6411 O.2       6 UNK        -0.5003 
     45 CA         32.1597  -50.1696  -57.7848 C.3       5 UNK         0.0782 
     46 C46        31.7674  -48.6835  -57.9674 C.3       11 UNK        -0.0868 
     47 S47        32.8262  -47.7897  -59.1540 S.3       11 UNK        -0.2515 
     48 C48        33.3696  -46.3204  -58.2071 C.3       11 UNK         0.0199 
     49 N          33.4686  -50.3186  -57.1423 N.am      5 UNK        -0.4607 
     50 C          34.0928  -51.4839  -56.9211 C.2       4 UNK         0.5031 
     51 O          33.6986  -52.5616  -57.3678 O.2       4 UNK        -0.5119 
     52 CA         35.3609  -51.4618  -56.0434 C.3       4 UNK         0.0263 
     53 CB         36.6105  -51.7135  -56.9039 C.3       4 UNK        -0.1967 
     54 N          35.5669  -50.2394  -55.2539 N.am      4 UNK        -0.4237 
     55 C          34.7331  -49.7384  -54.3311 C.2       3 UNK         0.4908 
     56 O          33.6222  -50.2097  -54.0739 O.2       3 UNK        -0.5102 
     57 CA         35.2028  -48.4407  -53.6525 C.3       3 UNK         0.0241 
     58 CB         34.9710  -47.2492  -54.5934 C.3       3 UNK        -0.1971 
     59 N          34.5038  -48.1778  -52.3954 N.am      3 UNK        -0.4139 
     60 C          34.6308  -48.8898  -51.2674 C.2       2 UNK         0.5016 
     61 O          35.4179  -49.8288  -51.1359 O.2       2 UNK        -0.5319 
     62 CA         33.7546  -48.4709  -50.0697 C.3       2 UNK         0.0286 
     63 CB         34.6184  -47.8453  -48.9615 C.3       2 UNK        -0.1963 
     64 N          32.6883  -47.5274  -50.4262 N.am      2 UNK        -0.4790 
     65 C          31.5525  -47.8648  -51.0513 C.2       1 UNK         0.5024 
     66 O          31.2643  -49.0222  -51.3659 O.2       1 UNK        -0.4888 
     67 H67        26.8993  -48.2079  -51.3640 H         1 UNK         0.0892 
     68 H68        26.4253  -47.2056  -49.9865 H         1 UNK         0.0892 
     69 H69        27.0093  -48.8526  -49.7279 H         1 UNK         0.0892 
     70 H70        28.7409  -47.2481  -52.2259 H         1 UNK         0.3107 
     71 H71        30.7433  -45.8954  -50.6986 H         1 UNK         0.0773 
     72 H72        30.0607  -45.5657  -53.1834 H         1 UNK         0.0680 
     73 H73        31.0122  -46.9699  -53.5671 H         1 UNK         0.0680 
     74 H74        32.6305  -43.0706  -54.1926 H         1 UNK         0.0650 
     75 H75        30.9754  -43.2932  -53.6808 H         1 UNK         0.0650 
     76 H76        33.5231  -45.0920  -55.7938 H         1 UNK         0.1397 
     77 H77        30.7543  -45.8336  -58.9858 H         1 UNK         0.1363 
     78 H78        29.4574  -43.7914  -55.4492 H         1 UNK         0.1355 
     79 H79        27.8133  -44.6838  -57.0968 H         1 UNK         0.0707 
     80 H80        28.3679  -45.5046  -58.5391 H         1 UNK         0.0707 
     81 H81        26.4830  -44.3902  -59.5543 H         1 UNK         0.1034 
     82 H82        27.0245  -43.2463  -60.7504 H         1 UNK         0.1034 
     83 H83        26.1560  -41.3615  -59.3323 H         1 UNK         0.0482 
     84 H84        22.5259  -42.7890  -60.3333 H         1 UNK         0.3460 
     85 H85        23.2067  -43.0456  -58.7450 H         1 UNK         0.3460 
     86 H86        25.4020  -43.4983  -57.4434 H         1 UNK         0.2989 
     87 H87        24.7136  -41.1253  -54.9380 H         1 UNK         0.0559 
     88 H88        22.4254  -41.4079  -55.8603 H         1 UNK         0.0848 
     89 H89        22.6696  -42.4388  -54.4610 H         1 UNK         0.0848 
     90 H90        22.6981  -43.1283  -56.0826 H         1 UNK         0.0848 
     91 H91        25.7845  -42.8333  -54.1207 H         1 UNK         0.3144 
     92 H92        27.0602  -44.8384  -54.1418 H         1 UNK         0.0727 
     93 H93        25.9052  -46.2083  -52.3833 H         1 UNK         0.0790 
     94 H94        24.3791  -46.0773  -53.2535 H         1 UNK         0.0790 
     95 H95        25.1157  -44.6519  -52.5330 H         1 UNK         0.0790 
     96 H96        25.7606  -46.7150  -55.8764 H         1 UNK         0.3215 
     97 H97        26.5742  -49.2472  -55.6125 H         1 UNK         0.0863 
     98 H98        27.8068  -49.1053  -57.8156 H         1 UNK         0.0808 
     99 H99        28.5582  -47.6018  -57.2962 H         1 UNK         0.0808 
    100 H100       26.8180  -47.6814  -57.5563 H         1 UNK         0.0808 
    101 H101       29.5107  -48.9027  -55.2068 H         1 UNK         0.3118 
    102 H102       30.3797  -50.9692  -53.7315 H         1 UNK         0.0546 
    103 H103       31.0694  -53.2593  -54.4647 H         1 UNK         0.0828 
    104 H104       29.7428  -53.2956  -55.6253 H         1 UNK         0.0828 
    105 H105       29.4066  -53.2388  -53.9010 H         1 UNK         0.0828 
    106 H106       31.9157  -50.4200  -55.2337 H         1 UNK         0.3005 
    107 H107       32.2184  -50.6408  -58.7687 H         1 UNK         0.1257 
    108 H108       31.7741  -48.1760  -57.0011 H         1 UNK         0.0775 
    109 H109       30.7454  -48.5981  -58.3431 H         1 UNK         0.0775 
    110 H110       34.1387  -46.6438  -57.5048 H         1 UNK         0.0840 
    111 H111       33.8554  -45.6248  -58.8923 H         1 UNK         0.0840 
    112 H112       33.8791  -49.4794  -56.7638 H         1 UNK         0.2987 
    113 H113       35.2629  -52.2869  -55.3349 H         1 UNK         0.0785 
    114 H114       37.5048  -51.8139  -56.2886 H         1 UNK         0.0798 
    115 H115       36.7791  -50.9044  -57.6158 H         1 UNK         0.0798 
    116 H116       36.5123  -52.6363  -57.4779 H         1 UNK         0.0798 
    117 H117       36.4418  -49.7596  -55.4120 H         1 UNK         0.3079 
    118 H118       36.2698  -48.5244  -53.4349 H         1 UNK         0.0794 
    119 H119       35.5488  -47.3496  -55.5128 H         1 UNK         0.0786 
    120 H120       35.2675  -46.3083  -54.1288 H         1 UNK         0.0786 
    121 H121       33.9192  -47.1721  -54.8708 H         1 UNK         0.0786 
    122 H122       33.8159  -47.4393  -52.4070 H         1 UNK         0.3032 
    123 H123       33.2968  -49.3813  -49.6753 H         1 UNK         0.1094 
    124 H124       35.1070  -46.9299  -49.2978 H         1 UNK         0.0794 
    125 H125       34.0222  -47.6055  -48.0808 H         1 UNK         0.0794 
    126 H126       35.4020  -48.5335  -48.6409 H         1 UNK         0.0794 
    127 H127       32.8560  -46.5533  -50.2140 H         1 UNK         0.3016 
@<TRIPOS>BOND
     1    1    2 1    
     2    1   67 1    
     3    1   68 1    
     4    1   69 1    
     5    2    3 2    
     6    2    4 am   BACKBONE|DICT|INTERRES
     7    4    5 1    
     8    4   70 1    
     9    5    6 1    
    10    5   65 1    
    11    5   71 1    
    12    6    7 1    
    13    6   72 1    
    14    6   73 1    
    15    7    8 1    
    16    8    9 1    
    17    8   74 1    
    18    8   75 1    
    19    9   10 ar   
    20    9   14 ar   
    21   10   11 ar   
    22   10   76 1    
    23   11   12 ar   
    24   11   48 1    
    25   12   13 ar   
    26   12   77 1    
    27   13   14 ar   
    28   13   15 1    
    29   14   78 1    
    30   15   16 1    
    31   15   79 1    
    32   15   80 1    
    33   16   17 1    
    34   17   18 1    
    35   17   81 1    
    36   17   82 1    
    37   18   19 1    
    38   18   22 1    
    39   18   83 1    
    40   19   20 am   BACKBONE|DICT|INTERRES
    41   19   21 2    
    42   20   84 1    
    43   20   85 1    
    44   22   23 am   BACKBONE|DICT|INTERRES
    45   22   86 1    
    46   23   24 2    
    47   23   25 1    
    48   25   26 1    
    49   25   27 1    
    50   25   87 1    
    51   26   88 1    
    52   26   89 1    
    53   26   90 1    
    54   27   28 am   BACKBONE|DICT|INTERRES
    55   27   91 1    
    56   28   29 2    
    57   28   30 1    
    58   30   31 1    
    59   30   32 1    
    60   30   92 1    
    61   31   93 1    
    62   31   94 1    
    63   31   95 1    
    64   32   33 am   BACKBONE|DICT|INTERRES
    65   32   96 1    
    66   33   34 2    
    67   33   35 1    
    68   35   36 1    
    69   35   37 1    
    70   35   97 1    
    71   36   98 1    
    72   36   99 1    
    73   36  100 1    
    74   37   38 am   BACKBONE|DICT|INTERRES
    75   37  101 1    
    76   38   39 2    
    77   38   40 1    
    78   40   41 1    
    79   40   42 1    
    80   40  102 1    
    81   41  103 1    
    82   41  104 1    
    83   41  105 1    
    84   42   43 am   BACKBONE|DICT|INTERRES
    85   42  106 1    
    86   43   44 2    
    87   43   45 1    
    88   45   46 1    
    89   45   49 1    
    90   45  107 1    
    91   46   47 1    
    92   46  108 1    
    93   46  109 1    
    94   47   48 1    
    95   48  110 1    
    96   48  111 1    
    97   49   50 am   BACKBONE|DICT|INTERRES
    98   49  112 1    
    99   50   51 2    
   100   50   52 1    
   101   52   53 1    
   102   52   54 1    
   103   52  113 1    
   104   53  114 1    
   105   53  115 1    
   106   53  116 1    
   107   54   55 am   BACKBONE|DICT|INTERRES
   108   54  117 1    
   109   55   56 2    
   110   55   57 1    
   111   57   58 1    
   112   57   59 1    
   113   57  118 1    
   114   58  119 1    
   115   58  120 1    
   116   58  121 1    
   117   59   60 am   BACKBONE|DICT|INTERRES
   118   59  122 1    
   119   60   61 2    
   120   60   62 1    
   121   62   63 1    
   122   62   64 1    
   123   62  123 1    
   124   63  124 1    
   125   63  125 1    
   126   63  126 1    
   127   64   65 am   BACKBONE|DICT|INTERRES
   128   64  127 1    
   129   65   66 2    
@<TRIPOS>SUBSTRUCTURE
     1 UNK         1 GROUP             0       ****    0 ROOT    
