@<TRIPOS>MOLECULE
3R134
127   129    1
SMALL
USER_CHARGES


@<TRIPOS>ATOM
      1 CA         36.8185  -47.0953  -55.1975 C.3       0 UNK        -0.1968 
      2 C          36.0192  -46.3699  -54.1253 C.2       0 UNK         0.4852 
      3 O          36.6100  -45.7126  -53.2673 O.2       0 UNK        -0.5359 
      4 N          34.6862  -46.5042  -54.1584 N.am      1 UNK        -0.4300 
      5 CA         33.6767  -45.8875  -53.2802 C.3       1 UNK         0.0863 
      6 C6         33.7275  -44.3379  -53.2184 C.3       11 UNK        -0.0953 
      7 S7         33.5506  -43.5468  -54.8524 S.3       11 UNK        -0.2369 
      8 C8         31.8574  -42.8857  -54.7643 C.3       11 UNK         0.0226 
      9 C9         30.8192  -43.9455  -55.1000 C.ar      11 UNK        -0.0699 
     10 C10        30.2617  -44.7433  -54.0950 C.ar      11 UNK        -0.0804 
     11 C11        29.2900  -45.6988  -54.4074 C.ar      11 UNK        -0.0871 
     12 C12        28.8777  -45.8482  -55.7342 C.ar      11 UNK        -0.1008 
     13 C13        29.4189  -45.0514  -56.7462 C.ar      11 UNK        -0.0735 
     14 C14        30.3959  -44.1066  -56.4228 C.ar      11 UNK        -0.0945 
     15 C15        28.9364  -45.1968  -58.1838 C.3       11 UNK         0.0169 
     16 S16        27.1456  -44.9081  -58.3581 S.3       11 UNK        -0.2669 
     17 C17        26.9655  -43.1907  -57.7641 C.3       11 UNK        -0.0850 
     18 CA         26.4770  -43.1030  -56.2869 C.3       10 UNK         0.0855 
     19 C          26.4648  -41.6402  -55.7459 C.2       10 UNK         0.5543 
     20 N          25.5890  -41.2923  -54.8105 N.am      10 UNK        -0.7343 
     21 O          27.2761  -40.8126  -56.1540 O.2       10 UNK        -0.5027 
     22 N          25.2422  -43.8714  -56.0283 N.am      10 UNK        -0.4495 
     23 C          24.0316  -43.6269  -56.5484 C.2       10 UNK         0.4903 
     24 O          23.7911  -42.7108  -57.3370 O.2       10 UNK        -0.4860 
     25 CA         22.8980  -44.5607  -56.0764 C.3       9 UNK         0.0227 
     26 CB         21.5534  -44.2871  -56.7858 C.3       9 UNK        -0.1964 
     27 N          23.2501  -45.9864  -56.1499 N.am      9 UNK        -0.4231 
     28 C          23.5540  -46.6903  -57.2508 C.2       9 UNK         0.5014 
     29 O          23.5775  -46.2262  -58.3936 O.2       9 UNK        -0.5270 
     30 CA         23.8104  -48.1920  -57.0382 C.3       8 UNK         0.0284 
     31 CB         22.4884  -48.9757  -57.1018 C.3       8 UNK        -0.1977 
     32 N          24.7169  -48.7057  -58.0654 N.am      8 UNK        -0.4342 
     33 C          26.0499  -48.6531  -57.9811 C.2       8 UNK         0.5039 
     34 O          26.6586  -48.3031  -56.9659 O.2       8 UNK        -0.5547 
     35 CA         26.8371  -49.0622  -59.2346 C.3       7 UNK         0.0281 
     36 CB         26.4690  -48.1937  -60.4569 C.3       7 UNK        -0.1963 
     37 N          28.2583  -48.9318  -58.9309 N.am      7 UNK        -0.4444 
     38 C          29.2769  -49.4548  -59.6195 C.2       7 UNK         0.5104 
     39 O          29.1364  -50.1375  -60.6349 O.2       7 UNK        -0.5100 
     40 CA         30.6995  -49.1662  -59.1022 C.3       6 UNK         0.0396 
     41 CB         31.3806  -48.0942  -59.9691 C.3       6 UNK        -0.1801 
     42 N          30.7590  -48.7547  -57.6941 N.am      6 UNK        -0.4747 
     43 C          30.5892  -49.5893  -56.6595 C.2       6 UNK         0.5012 
     44 O          30.3063  -50.7833  -56.7835 O.2       6 UNK        -0.5003 
     45 CA         30.7884  -49.0051  -55.2494 C.3       5 UNK         0.0782 
     46 C46        29.4651  -49.0016  -54.4499 C.3       11 UNK        -0.0868 
     47 S47        29.6288  -48.0274  -52.9170 S.3       11 UNK        -0.2515 
     48 C48        28.6530  -46.5406  -53.3096 C.3       11 UNK         0.0199 
     49 N          31.8200  -49.7837  -54.5659 N.am      5 UNK        -0.4607 
     50 C          33.1329  -49.6831  -54.7833 C.2       4 UNK         0.5031 
     51 O          33.6363  -48.8082  -55.4915 O.2       4 UNK        -0.5119 
     52 CA         34.0227  -50.7200  -54.0691 C.3       4 UNK         0.0263 
     53 CB         35.5037  -50.6073  -54.4732 C.3       4 UNK        -0.1967 
     54 N          33.9282  -50.6135  -52.6131 N.am      4 UNK        -0.4237 
     55 C          32.9094  -51.0139  -51.8428 C.2       3 UNK         0.4908 
     56 O          31.9167  -51.5961  -52.2824 O.2       3 UNK        -0.5102 
     57 CA         32.9848  -50.6874  -50.3381 C.3       3 UNK         0.0241 
     58 CB         33.7050  -51.8053  -49.5587 C.3       3 UNK        -0.1971 
     59 N          33.5427  -49.3581  -50.0365 N.am      3 UNK        -0.4139 
     60 C          34.7940  -48.9105  -50.2146 C.2       2 UNK         0.5016 
     61 O          35.7193  -49.6009  -50.6466 O.2       2 UNK        -0.5319 
     62 CA         35.0168  -47.4073  -49.9895 C.3       2 UNK         0.0286 
     63 CB         36.4272  -47.1067  -49.4523 C.3       2 UNK        -0.1963 
     64 N          34.8305  -46.7028  -51.2576 N.am      2 UNK        -0.4790 
     65 C          33.6543  -46.4849  -51.8588 C.2       1 UNK         0.5024 
     66 O          32.5731  -46.7485  -51.3331 O.2       1 UNK        -0.4888 
     67 H67        36.1776  -47.6738  -55.8630 H         1 UNK         0.0892 
     68 H68        37.3711  -46.3761  -55.8013 H         1 UNK         0.0892 
     69 H69        37.5347  -47.7757  -54.7379 H         1 UNK         0.0892 
     70 H70        34.2952  -47.1486  -54.8427 H         1 UNK         0.3107 
     71 H71        32.7207  -46.1636  -53.7281 H         1 UNK         0.0773 
     72 H72        34.6688  -43.9990  -52.7835 H         1 UNK         0.0680 
     73 H73        32.9487  -43.9592  -52.5544 H         1 UNK         0.0680 
     74 H74        31.7749  -42.0569  -55.4689 H         1 UNK         0.0650 
     75 H75        31.6667  -42.4574  -53.7793 H         1 UNK         0.0650 
     76 H76        30.5785  -44.6181  -53.0686 H         1 UNK         0.1397 
     77 H77        28.1066  -46.5621  -55.9803 H         1 UNK         0.1363 
     78 H78        30.8205  -43.4840  -57.1986 H         1 UNK         0.1355 
     79 H79        29.1567  -46.2057  -58.5296 H         1 UNK         0.0707 
     80 H80        29.4719  -44.5181  -58.8494 H         1 UNK         0.0707 
     81 H81        26.2684  -42.6725  -58.4240 H         1 UNK         0.1034 
     82 H82        27.9227  -42.6800  -57.8838 H         1 UNK         0.1034 
     83 H83        27.2347  -43.5891  -55.6742 H         1 UNK         0.0482 
     84 H84        24.9250  -41.9624  -54.4581 H         1 UNK         0.3460 
     85 H85        25.5916  -40.3482  -54.4576 H         1 UNK         0.3460 
     86 H86        25.3419  -44.6486  -55.3926 H         1 UNK         0.2989 
     87 H87        22.7516  -44.3408  -55.0178 H         1 UNK         0.0559 
     88 H88        21.6236  -44.4395  -57.8633 H         1 UNK         0.0848 
     89 H89        21.2300  -43.2578  -56.6258 H         1 UNK         0.0848 
     90 H90        20.7641  -44.9358  -56.4062 H         1 UNK         0.0848 
     91 H91        23.2524  -46.4758  -55.2651 H         1 UNK         0.3144 
     92 H92        24.2554  -48.3417  -56.0518 H         1 UNK         0.0727 
     93 H93        21.7953  -48.6388  -56.3298 H         1 UNK         0.0790 
     94 H94        22.6517  -50.0422  -56.9452 H         1 UNK         0.0790 
     95 H95        21.9891  -48.8501  -58.0637 H         1 UNK         0.0790 
     96 H96        24.2947  -48.9528  -58.9487 H         1 UNK         0.3215 
     97 H97        26.6160  -50.1105  -59.4457 H         1 UNK         0.0863 
     98 H98        26.6630  -47.1374  -60.2708 H         1 UNK         0.0808 
     99 H99        25.4142  -48.2897  -60.7148 H         1 UNK         0.0808 
    100 H100       27.0364  -48.4837  -61.3411 H         1 UNK         0.0808 
    101 H101       28.4367  -48.4461  -58.0601 H         1 UNK         0.3118 
    102 H102       31.2721  -50.0904  -59.2076 H         1 UNK         0.0546 
    103 H103       32.4157  -47.9364  -59.6659 H         1 UNK         0.0828 
    104 H104       30.8643  -47.1358  -59.9160 H         1 UNK         0.0828 
    105 H105       31.3963  -48.3945  -61.0178 H         1 UNK         0.0828 
    106 H106       31.0088  -47.7922  -57.5154 H         1 UNK         0.3005 
    107 H107       31.1365  -47.9734  -55.3447 H         1 UNK         0.1257 
    108 H108       29.1728  -50.0192  -54.1836 H         1 UNK         0.0775 
    109 H109       28.6411  -48.6070  -55.0450 H         1 UNK         0.0775 
    110 H110       27.6405  -46.8346  -53.5914 H         1 UNK         0.0840 
    111 H111       28.5503  -45.9416  -52.4036 H         1 UNK         0.0840 
    112 H112       31.4974  -50.5101  -53.9355 H         1 UNK         0.2987 
    113 H113       33.6690  -51.7085  -54.3701 H         1 UNK         0.0785 
    114 H114       35.9411  -49.6684  -54.1346 H         1 UNK         0.0798 
    115 H115       36.0918  -51.4201  -54.0467 H         1 UNK         0.0798 
    116 H116       35.6230  -50.6566  -55.5565 H         1 UNK         0.0798 
    117 H117       34.7090  -50.1716  -52.1342 H         1 UNK         0.3079 
    118 H118       31.9541  -50.6554  -49.9809 H         1 UNK         0.0794 
    119 H119       33.2037  -52.7630  -49.7046 H         1 UNK         0.0786 
    120 H120       33.7099  -51.6021  -48.4878 H         1 UNK         0.0786 
    121 H121       34.7388  -51.9316  -49.8813 H         1 UNK         0.0786 
    122 H122       32.8497  -48.6661  -49.7801 H         1 UNK         0.3032 
    123 H123       34.2885  -47.0434  -49.2610 H         1 UNK         0.1094 
    124 H124       37.2041  -47.4049  -50.1577 H         1 UNK         0.0794 
    125 H125       36.5536  -46.0433  -49.2478 H         1 UNK         0.0794 
    126 H126       36.6105  -47.6409  -48.5191 H         1 UNK         0.0794 
    127 H127       35.6670  -46.4424  -51.7746 H         1 UNK         0.3016 
@<TRIPOS>BOND
     1    1    2 1    
     2    1   67 1    
     3    1   68 1    
     4    1   69 1    
     5    2    3 2    
     6    2    4 am   BACKBONE|DICT|INTERRES
     7    4    5 1    
     8    4   70 1    
     9    5    6 1    
    10    5   65 1    
    11    5   71 1    
    12    6    7 1    
    13    6   72 1    
    14    6   73 1    
    15    7    8 1    
    16    8    9 1    
    17    8   74 1    
    18    8   75 1    
    19    9   10 ar   
    20    9   14 ar   
    21   10   11 ar   
    22   10   76 1    
    23   11   12 ar   
    24   11   48 1    
    25   12   13 ar   
    26   12   77 1    
    27   13   14 ar   
    28   13   15 1    
    29   14   78 1    
    30   15   16 1    
    31   15   79 1    
    32   15   80 1    
    33   16   17 1    
    34   17   18 1    
    35   17   81 1    
    36   17   82 1    
    37   18   19 1    
    38   18   22 1    
    39   18   83 1    
    40   19   20 am   BACKBONE|DICT|INTERRES
    41   19   21 2    
    42   20   84 1    
    43   20   85 1    
    44   22   23 am   BACKBONE|DICT|INTERRES
    45   22   86 1    
    46   23   24 2    
    47   23   25 1    
    48   25   26 1    
    49   25   27 1    
    50   25   87 1    
    51   26   88 1    
    52   26   89 1    
    53   26   90 1    
    54   27   28 am   BACKBONE|DICT|INTERRES
    55   27   91 1    
    56   28   29 2    
    57   28   30 1    
    58   30   31 1    
    59   30   32 1    
    60   30   92 1    
    61   31   93 1    
    62   31   94 1    
    63   31   95 1    
    64   32   33 am   BACKBONE|DICT|INTERRES
    65   32   96 1    
    66   33   34 2    
    67   33   35 1    
    68   35   36 1    
    69   35   37 1    
    70   35   97 1    
    71   36   98 1    
    72   36   99 1    
    73   36  100 1    
    74   37   38 am   BACKBONE|DICT|INTERRES
    75   37  101 1    
    76   38   39 2    
    77   38   40 1    
    78   40   41 1    
    79   40   42 1    
    80   40  102 1    
    81   41  103 1    
    82   41  104 1    
    83   41  105 1    
    84   42   43 am   BACKBONE|DICT|INTERRES
    85   42  106 1    
    86   43   44 2    
    87   43   45 1    
    88   45   46 1    
    89   45   49 1    
    90   45  107 1    
    91   46   47 1    
    92   46  108 1    
    93   46  109 1    
    94   47   48 1    
    95   48  110 1    
    96   48  111 1    
    97   49   50 am   BACKBONE|DICT|INTERRES
    98   49  112 1    
    99   50   51 2    
   100   50   52 1    
   101   52   53 1    
   102   52   54 1    
   103   52  113 1    
   104   53  114 1    
   105   53  115 1    
   106   53  116 1    
   107   54   55 am   BACKBONE|DICT|INTERRES
   108   54  117 1    
   109   55   56 2    
   110   55   57 1    
   111   57   58 1    
   112   57   59 1    
   113   57  118 1    
   114   58  119 1    
   115   58  120 1    
   116   58  121 1    
   117   59   60 am   BACKBONE|DICT|INTERRES
   118   59  122 1    
   119   60   61 2    
   120   60   62 1    
   121   62   63 1    
   122   62   64 1    
   123   62  123 1    
   124   63  124 1    
   125   63  125 1    
   126   63  126 1    
   127   64   65 am   BACKBONE|DICT|INTERRES
   128   64  127 1    
   129   65   66 2    
@<TRIPOS>SUBSTRUCTURE
     1 UNK         1 GROUP             0       ****    0 ROOT    
