@<TRIPOS>MOLECULE
3R134
127   129    1
SMALL
USER_CHARGES


@<TRIPOS>ATOM
      1 CA         30.2004  -43.8336  -49.3416 C.3       0 UNK        -0.1968 
      2 C          31.4551  -44.6902  -49.2506 C.2       0 UNK         0.4852 
      3 O          31.8152  -45.1353  -48.1593 O.2       0 UNK        -0.5359 
      4 N          32.1246  -44.9149  -50.3873 N.am      1 UNK        -0.4300 
      5 CA         33.2962  -45.7850  -50.5198 C.3       1 UNK         0.0863 
      6 C6         34.1433  -45.4164  -51.7680 C.3       11 UNK        -0.0953 
      7 S7         33.1986  -45.3693  -53.3321 S.3       11 UNK        -0.2369 
      8 C8         33.3656  -43.6136  -53.7828 C.3       11 UNK         0.0226 
      9 C9         32.5397  -43.2757  -55.0143 C.ar      11 UNK        -0.0699 
     10 C10        32.9240  -43.7592  -56.2685 C.ar      11 UNK        -0.0804 
     11 C11        32.1604  -43.4735  -57.4042 C.ar      11 UNK        -0.0871 
     12 C12        31.0181  -42.6791  -57.2825 C.ar      11 UNK        -0.1008 
     13 C13        30.6318  -42.1758  -56.0373 C.ar      11 UNK        -0.0735 
     14 C14        31.3964  -42.4772  -54.9054 C.ar      11 UNK        -0.0945 
     15 C15        29.3872  -41.3056  -55.9263 C.3       11 UNK         0.0169 
     16 S16        28.0963  -42.0259  -54.8596 S.3       11 UNK        -0.2669 
     17 C17        27.8753  -43.7047  -55.5416 C.3       11 UNK        -0.0850 
     18 CA         26.7579  -43.8045  -56.6127 C.3       10 UNK         0.0855 
     19 C          27.2871  -43.5033  -58.0412 C.2       10 UNK         0.5543 
     20 N          27.8948  -44.4698  -58.7158 N.am      10 UNK        -0.7343 
     21 O          27.1324  -42.3932  -58.5438 O.2       10 UNK        -0.5027 
     22 N          26.0459  -45.0874  -56.5139 N.am      10 UNK        -0.4495 
     23 C          24.8294  -45.3184  -57.0211 C.2       10 UNK         0.4903 
     24 O          24.1815  -44.4932  -57.6679 O.2       10 UNK        -0.4860 
     25 CA         24.2306  -46.6967  -56.7005 C.3       9 UNK         0.0227 
     26 CB         22.7805  -46.8753  -57.2024 C.3       9 UNK        -0.1964 
     27 N          25.1001  -47.7925  -57.1361 N.am      9 UNK        -0.4231 
     28 C          25.3668  -48.1960  -58.3881 C.2       9 UNK         0.5014 
     29 O          24.9007  -47.6547  -59.3918 O.2       9 UNK        -0.5270 
     30 CA         26.2958  -49.4196  -58.5727 C.3       8 UNK         0.0284 
     31 CB         27.3645  -49.1508  -59.6478 C.3       8 UNK        -0.1977 
     32 N          26.9643  -49.8665  -57.3467 N.am      8 UNK        -0.4342 
     33 C          26.3958  -50.5116  -56.3193 C.2       8 UNK         0.5039 
     34 O          25.2286  -50.9017  -56.3183 O.2       8 UNK        -0.5547 
     35 CA         27.2523  -50.6832  -55.0504 C.3       7 UNK         0.0281 
     36 CB         27.9822  -52.0357  -55.0622 C.3       7 UNK        -0.1963 
     37 N          28.2199  -49.5955  -54.8529 N.am      7 UNK        -0.4444 
     38 C          27.8982  -48.3076  -54.6535 C.2       7 UNK         0.5104 
     39 O          26.7425  -47.8858  -54.5972 O.2       7 UNK        -0.5100 
     40 CA         29.0636  -47.3121  -54.5676 C.3       6 UNK         0.0396 
     41 CB         29.6938  -47.3180  -53.1694 C.3       6 UNK        -0.1801 
     42 N          30.0773  -47.5743  -55.5906 N.am      6 UNK        -0.4747 
     43 C          29.8955  -47.3124  -56.8960 C.2       6 UNK         0.5012 
     44 O          28.8829  -46.7657  -57.3362 O.2       6 UNK        -0.5003 
     45 CA         30.9867  -47.7956  -57.8816 C.3       5 UNK         0.0782 
     46 C46        32.0671  -46.7179  -58.1337 C.3       11 UNK        -0.0868 
     47 S47        31.5117  -45.4126  -59.2775 S.3       11 UNK        -0.2515 
     48 C48        32.5647  -44.0181  -58.7660 C.3       11 UNK         0.0199 
     49 N          31.6086  -49.0514  -57.4560 N.am      5 UNK        -0.4607 
     50 C          30.9715  -50.2183  -57.3000 C.2       4 UNK         0.5031 
     51 O          29.7891  -50.3874  -57.5894 O.2       4 UNK        -0.5119 
     52 CA         31.7683  -51.3774  -56.6710 C.3       4 UNK         0.0263 
     53 CB         32.2352  -52.3561  -57.7596 C.3       4 UNK        -0.1967 
     54 N          32.9238  -50.9524  -55.8685 N.am      4 UNK        -0.4237 
     55 C          32.8635  -50.1683  -54.7823 C.2       3 UNK         0.4908 
     56 O          31.8152  -49.6920  -54.3407 O.2       3 UNK        -0.5102 
     57 CA         34.2134  -49.7864  -54.1536 C.3       3 UNK         0.0241 
     58 CB         34.8490  -48.6238  -54.9358 C.3       3 UNK        -0.1971 
     59 N          34.0893  -49.3927  -52.7497 N.am      3 UNK        -0.4139 
     60 C          33.7979  -50.2180  -51.7346 C.2       2 UNK         0.5016 
     61 O          33.6168  -51.4291  -51.8732 O.2       2 UNK        -0.5319 
     62 CA         33.7384  -49.6102  -50.3174 C.3       2 UNK         0.0286 
     63 CB         34.8208  -50.2303  -49.4161 C.3       2 UNK        -0.1963 
     64 N          33.8950  -48.1502  -50.2979 N.am      2 UNK        -0.4790 
     65 C          32.8996  -47.2784  -50.5066 C.2       1 UNK         0.5024 
     66 O          31.7323  -47.6204  -50.7049 O.2       1 UNK        -0.4888 
     67 H67        29.3342  -44.4014  -49.0030 H         1 UNK         0.0892 
     68 H68        30.3002  -42.9527  -48.7081 H         1 UNK         0.0892 
     69 H69        30.0080  -43.4982  -50.3608 H         1 UNK         0.0892 
     70 H70        31.7602  -44.5617  -51.2600 H         1 UNK         0.3107 
     71 H71        33.9262  -45.6238  -49.6421 H         1 UNK         0.0773 
     72 H72        34.6051  -44.4417  -51.6037 H         1 UNK         0.0680 
     73 H73        34.9804  -46.1050  -51.8939 H         1 UNK         0.0680 
     74 H74        34.4156  -43.3885  -53.9755 H         1 UNK         0.0650 
     75 H75        33.0632  -42.9936  -52.9374 H         1 UNK         0.0650 
     76 H76        33.8100  -44.3737  -56.3529 H         1 UNK         0.1397 
     77 H77        30.4253  -42.4612  -58.1609 H         1 UNK         0.1363 
     78 H78        31.0930  -42.0945  -53.9405 H         1 UNK         0.1355 
     79 H79        28.9604  -41.1105  -56.9109 H         1 UNK         0.0707 
     80 H80        29.6715  -40.3330  -55.5227 H         1 UNK         0.0707 
     81 H81        28.8187  -44.1232  -55.8971 H         1 UNK         0.1034 
     82 H82        27.6032  -44.3110  -54.6771 H         1 UNK         0.1034 
     83 H83        26.0171  -43.0348  -56.3851 H         1 UNK         0.0482 
     84 H84        28.0926  -45.3612  -58.2688 H         1 UNK         0.3460 
     85 H85        28.2371  -44.2876  -59.6445 H         1 UNK         0.3460 
     86 H86        26.5241  -45.8409  -56.0404 H         1 UNK         0.2989 
     87 H87        24.1976  -46.7643  -55.6119 H         1 UNK         0.0559 
     88 H88        22.7024  -46.7630  -58.2839 H         1 UNK         0.0848 
     89 H89        22.1222  -46.1297  -56.7550 H         1 UNK         0.0848 
     90 H90        22.3863  -47.8562  -56.9369 H         1 UNK         0.0848 
     91 H91        25.5765  -48.2744  -56.3828 H         1 UNK         0.3144 
     92 H92        25.6661  -50.2391  -58.9244 H         1 UNK         0.0727 
     93 H93        28.0101  -50.0171  -59.7937 H         1 UNK         0.0790 
     94 H94        27.9951  -48.3022  -59.3830 H         1 UNK         0.0790 
     95 H95        26.9062  -48.9262  -60.6117 H         1 UNK         0.0790 
     96 H96        27.9622  -49.6848  -57.2890 H         1 UNK         0.3215 
     97 H97        26.5728  -50.6718  -54.1953 H         1 UNK         0.0863 
     98 H98        28.5786  -52.1767  -54.1606 H         1 UNK         0.0808 
     99 H99        28.6422  -52.1341  -55.9237 H         1 UNK         0.0808 
    100 H100       27.2680  -52.8589  -55.1094 H         1 UNK         0.0808 
    101 H101       29.2003  -49.8370  -54.8989 H         1 UNK         0.3118 
    102 H102       28.6620  -46.3150  -54.7387 H         1 UNK         0.0546 
    103 H103       28.9534  -47.0772  -52.4058 H         1 UNK         0.0828 
    104 H104       30.4882  -46.5772  -53.0904 H         1 UNK         0.0828 
    105 H105       30.1170  -48.2893  -52.9131 H         1 UNK         0.0828 
    106 H106       30.9009  -48.0860  -55.2916 H         1 UNK         0.3005 
    107 H107       30.4837  -48.0076  -58.8280 H         1 UNK         0.1257 
    108 H108       32.9497  -47.1682  -58.5912 H         1 UNK         0.0775 
    109 H109       32.4081  -46.2901  -57.1905 H         1 UNK         0.0775 
    110 H110       33.6100  -44.3310  -58.7677 H         1 UNK         0.0840 
    111 H111       32.4840  -43.2244  -59.5103 H         1 UNK         0.0840 
    112 H112       32.5829  -49.0065  -57.2000 H         1 UNK         0.2987 
    113 H113       31.0879  -51.9088  -56.0030 H         1 UNK         0.0785 
    114 H114       31.3912  -52.7104  -58.3536 H         1 UNK         0.0798 
    115 H115       32.7135  -53.2348  -57.3263 H         1 UNK         0.0798 
    116 H116       32.9434  -51.8901  -58.4460 H         1 UNK         0.0798 
    117 H117       33.8273  -51.2856  -56.1743 H         1 UNK         0.3079 
    118 H118       34.8776  -50.6520  -54.2027 H         1 UNK         0.0794 
    119 H119       34.2043  -47.7440  -54.9467 H         1 UNK         0.0786 
    120 H120       35.0378  -48.9014  -55.9736 H         1 UNK         0.0786 
    121 H121       35.8067  -48.3308  -54.5049 H         1 UNK         0.0786 
    122 H122       34.1754  -48.4090  -52.5460 H         1 UNK         0.3032 
    123 H123       32.7617  -49.8706  -49.9024 H         1 UNK         0.1094 
    124 H124       35.8248  -50.0230  -49.7884 H         1 UNK         0.0794 
    125 H125       34.7542  -49.8499  -48.3965 H         1 UNK         0.0794 
    126 H126       34.7118  -51.3144  -49.3609 H         1 UNK         0.0794 
    127 H127       34.8292  -47.8001  -50.1347 H         1 UNK         0.3016 
@<TRIPOS>BOND
     1    1    2 1    
     2    1   67 1    
     3    1   68 1    
     4    1   69 1    
     5    2    3 2    
     6    2    4 am   BACKBONE|DICT|INTERRES
     7    4    5 1    
     8    4   70 1    
     9    5    6 1    
    10    5   65 1    
    11    5   71 1    
    12    6    7 1    
    13    6   72 1    
    14    6   73 1    
    15    7    8 1    
    16    8    9 1    
    17    8   74 1    
    18    8   75 1    
    19    9   10 ar   
    20    9   14 ar   
    21   10   11 ar   
    22   10   76 1    
    23   11   12 ar   
    24   11   48 1    
    25   12   13 ar   
    26   12   77 1    
    27   13   14 ar   
    28   13   15 1    
    29   14   78 1    
    30   15   16 1    
    31   15   79 1    
    32   15   80 1    
    33   16   17 1    
    34   17   18 1    
    35   17   81 1    
    36   17   82 1    
    37   18   19 1    
    38   18   22 1    
    39   18   83 1    
    40   19   20 am   BACKBONE|DICT|INTERRES
    41   19   21 2    
    42   20   84 1    
    43   20   85 1    
    44   22   23 am   BACKBONE|DICT|INTERRES
    45   22   86 1    
    46   23   24 2    
    47   23   25 1    
    48   25   26 1    
    49   25   27 1    
    50   25   87 1    
    51   26   88 1    
    52   26   89 1    
    53   26   90 1    
    54   27   28 am   BACKBONE|DICT|INTERRES
    55   27   91 1    
    56   28   29 2    
    57   28   30 1    
    58   30   31 1    
    59   30   32 1    
    60   30   92 1    
    61   31   93 1    
    62   31   94 1    
    63   31   95 1    
    64   32   33 am   BACKBONE|DICT|INTERRES
    65   32   96 1    
    66   33   34 2    
    67   33   35 1    
    68   35   36 1    
    69   35   37 1    
    70   35   97 1    
    71   36   98 1    
    72   36   99 1    
    73   36  100 1    
    74   37   38 am   BACKBONE|DICT|INTERRES
    75   37  101 1    
    76   38   39 2    
    77   38   40 1    
    78   40   41 1    
    79   40   42 1    
    80   40  102 1    
    81   41  103 1    
    82   41  104 1    
    83   41  105 1    
    84   42   43 am   BACKBONE|DICT|INTERRES
    85   42  106 1    
    86   43   44 2    
    87   43   45 1    
    88   45   46 1    
    89   45   49 1    
    90   45  107 1    
    91   46   47 1    
    92   46  108 1    
    93   46  109 1    
    94   47   48 1    
    95   48  110 1    
    96   48  111 1    
    97   49   50 am   BACKBONE|DICT|INTERRES
    98   49  112 1    
    99   50   51 2    
   100   50   52 1    
   101   52   53 1    
   102   52   54 1    
   103   52  113 1    
   104   53  114 1    
   105   53  115 1    
   106   53  116 1    
   107   54   55 am   BACKBONE|DICT|INTERRES
   108   54  117 1    
   109   55   56 2    
   110   55   57 1    
   111   57   58 1    
   112   57   59 1    
   113   57  118 1    
   114   58  119 1    
   115   58  120 1    
   116   58  121 1    
   117   59   60 am   BACKBONE|DICT|INTERRES
   118   59  122 1    
   119   60   61 2    
   120   60   62 1    
   121   62   63 1    
   122   62   64 1    
   123   62  123 1    
   124   63  124 1    
   125   63  125 1    
   126   63  126 1    
   127   64   65 am   BACKBONE|DICT|INTERRES
   128   64  127 1    
   129   65   66 2    
@<TRIPOS>SUBSTRUCTURE
     1 UNK         1 GROUP             0       ****    0 ROOT    
