@<TRIPOS>MOLECULE
3R134
127   129    1
SMALL
USER_CHARGES


@<TRIPOS>ATOM
      1 CA         33.6769  -41.9253  -49.2871 C.3       0 UNK        -0.1968 
      2 C          33.0072  -42.7546  -50.3732 C.2       0 UNK         0.4852 
      3 O          31.8751  -42.4536  -50.7535 O.2       0 UNK        -0.5359 
      4 N          33.7014  -43.7925  -50.8641 N.am      1 UNK        -0.4300 
      5 CA         33.2656  -44.7197  -51.9203 C.3       1 UNK         0.0863 
      6 C6         33.1141  -44.0504  -53.3127 C.3       11 UNK        -0.0953 
      7 S7         34.6844  -43.3631  -53.9368 S.3       11 UNK        -0.2369 
      8 C8         34.0912  -42.1797  -55.1904 C.3       11 UNK         0.0226 
      9 C9         33.1026  -42.8164  -56.1581 C.ar      11 UNK        -0.0699 
     10 C10        33.5323  -43.7732  -57.0827 C.ar      11 UNK        -0.0804 
     11 C11        32.6137  -44.4098  -57.9241 C.ar      11 UNK        -0.0871 
     12 C12        31.2630  -44.0544  -57.8608 C.ar      11 UNK        -0.1008 
     13 C13        30.8255  -43.0877  -56.9510 C.ar      11 UNK        -0.0735 
     14 C14        31.7488  -42.4726  -56.1020 C.ar      11 UNK        -0.0945 
     15 C15        29.3527  -42.7161  -56.8792 C.3       11 UNK         0.0169 
     16 S16        28.3496  -44.0662  -56.1898 S.3       11 UNK        -0.2669 
     17 C17        28.9747  -44.1632  -54.4744 C.3       11 UNK        -0.0850 
     18 CA         28.0271  -44.9437  -53.5257 C.3       10 UNK         0.0855 
     19 C          26.7154  -44.1519  -53.2388 C.2       10 UNK         0.5543 
     20 N          25.5547  -44.5852  -53.7205 N.am      10 UNK        -0.7343 
     21 O          26.7545  -43.1304  -52.5575 O.2       10 UNK        -0.5027 
     22 N          27.8222  -46.3191  -53.9994 N.am      10 UNK        -0.4495 
     23 C          27.2875  -47.3147  -53.2829 C.2       10 UNK         0.4903 
     24 O          27.0603  -47.2363  -52.0743 O.2       10 UNK        -0.4860 
     25 CA         26.9343  -48.6139  -54.0404 C.3       9 UNK         0.0227 
     26 CB         25.6516  -49.2739  -53.4918 C.3       9 UNK        -0.1964 
     27 N          26.8540  -48.4689  -55.5044 N.am      9 UNK        -0.4231 
     28 C          26.0062  -47.6970  -56.2038 C.2       9 UNK         0.5014 
     29 O          25.1872  -46.9372  -55.6833 O.2       9 UNK        -0.5270 
     30 CA         26.0928  -47.7613  -57.7400 C.3       8 UNK         0.0284 
     31 CB         26.6309  -46.4423  -58.3167 C.3       8 UNK        -0.1977 
     32 N          26.9240  -48.8637  -58.2356 N.am      8 UNK        -0.4342 
     33 C          26.4758  -50.1067  -58.4716 C.2       8 UNK         0.5039 
     34 O          25.3239  -50.4625  -58.2177 O.2       8 UNK        -0.5547 
     35 CA         27.4630  -51.1342  -59.0729 C.3       7 UNK         0.0281 
     36 CB         26.7777  -52.0953  -60.0673 C.3       7 UNK        -0.1963 
     37 N          28.6693  -50.5398  -59.6641 N.am      7 UNK        -0.4444 
     38 C          28.7467  -49.6839  -60.6980 C.2       7 UNK         0.5104 
     39 O          27.7835  -49.3672  -61.3968 O.2       7 UNK        -0.5100 
     40 CA         30.1278  -49.0398  -60.9686 C.3       6 UNK         0.0396 
     41 CB         30.0010  -47.6115  -61.5404 C.3       6 UNK        -0.1801 
     42 N          31.0264  -49.0420  -59.8027 N.am      6 UNK        -0.4747 
     43 C          30.7770  -48.5040  -58.5984 C.2       6 UNK         0.5012 
     44 O          29.7441  -47.8907  -58.3187 O.2       6 UNK        -0.5003 
     45 CA         31.8025  -48.7932  -57.4871 C.3       5 UNK         0.0782 
     46 C46        32.4606  -47.4992  -56.9535 C.3       11 UNK        -0.0868 
     47 S47        33.8207  -46.9213  -58.0248 S.3       11 UNK        -0.2515 
     48 C48        33.0713  -45.4983  -58.8862 C.3       11 UNK         0.0199 
     49 N          31.1528  -49.5406  -56.4102 N.am      5 UNK        -0.4607 
     50 C          30.6089  -50.7584  -56.5117 C.2       4 UNK         0.5031 
     51 O          30.6524  -51.4265  -57.5468 O.2       4 UNK        -0.5119 
     52 CA         29.8669  -51.3073  -55.2708 C.3       4 UNK         0.0263 
     53 CB         29.5652  -52.8132  -55.3882 C.3       4 UNK        -0.1967 
     54 N          30.5385  -51.0578  -53.9865 N.am      4 UNK        -0.4237 
     55 C          30.6696  -49.8725  -53.3765 C.2       3 UNK         0.4908 
     56 O          30.2898  -48.8071  -53.8690 O.2       3 UNK        -0.5102 
     57 CA         31.3630  -49.8709  -52.0105 C.3       3 UNK         0.0241 
     58 CB         32.8781  -50.1073  -52.1568 C.3       3 UNK        -0.1971 
     59 N          31.1266  -48.5753  -51.3839 N.am      3 UNK        -0.4139 
     60 C          31.1466  -48.3001  -50.0776 C.2       2 UNK         0.5016 
     61 O          31.3784  -49.1404  -49.2058 O.2       2 UNK        -0.5319 
     62 CA         30.9055  -46.8252  -49.6947 C.3       2 UNK         0.0286 
     63 CB         30.8294  -46.6095  -48.1715 C.3       2 UNK        -0.1963 
     64 N          31.9536  -45.9578  -50.2431 N.am      2 UNK        -0.4790 
     65 C          32.0185  -45.5392  -51.5156 C.2       1 UNK         0.5024 
     66 O          31.1545  -45.8105  -52.3501 O.2       1 UNK        -0.4888 
     67 H67        33.7703  -40.8892  -49.6116 H         1 UNK         0.0892 
     68 H68        33.0776  -41.9449  -48.3772 H         1 UNK         0.0892 
     69 H69        34.6731  -42.2951  -49.0451 H         1 UNK         0.0892 
     70 H70        34.6286  -43.9689  -50.5023 H         1 UNK         0.3107 
     71 H71        34.0622  -45.4602  -52.0093 H         1 UNK         0.0773 
     72 H72        32.7724  -44.7748  -54.0550 H         1 UNK         0.0680 
     73 H73        32.3578  -43.2646  -53.2812 H         1 UNK         0.0680 
     74 H74        33.6402  -41.3259  -54.6822 H         1 UNK         0.0650 
     75 H75        34.9457  -41.7913  -55.7459 H         1 UNK         0.0650 
     76 H76        34.5768  -44.0516  -57.1189 H         1 UNK         0.1397 
     77 H77        30.5427  -44.5445  -58.5024 H         1 UNK         0.1363 
     78 H78        31.4109  -41.7372  -55.3848 H         1 UNK         0.1355 
     79 H79        28.9918  -42.4865  -57.8827 H         1 UNK         0.0707 
     80 H80        29.2020  -41.8134  -56.2850 H         1 UNK         0.0707 
     81 H81        29.1549  -43.1568  -54.0917 H         1 UNK         0.1034 
     82 H82        29.9521  -44.6484  -54.4963 H         1 UNK         0.1034 
     83 H83        28.5364  -45.0211  -52.5635 H         1 UNK         0.0482 
     84 H84        25.5154  -45.4106  -54.3082 H         1 UNK         0.3460 
     85 H85        24.7137  -44.0666  -53.5254 H         1 UNK         0.3460 
     86 H86        27.9779  -46.4644  -54.9854 H         1 UNK         0.2989 
     87 H87        27.7505  -49.3061  -53.8451 H         1 UNK         0.0559 
     88 H88        25.4213  -50.1976  -54.0226 H         1 UNK         0.0848 
     89 H89        24.7882  -48.6132  -53.5774 H         1 UNK         0.0848 
     90 H90        25.7606  -49.5283  -52.4368 H         1 UNK         0.0848 
     91 H91        27.5096  -49.0190  -56.0383 H         1 UNK         0.3144 
     92 H92        25.0728  -47.8900  -58.1085 H         1 UNK         0.0727 
     93 H93        26.5939  -46.4432  -59.4062 H         1 UNK         0.0790 
     94 H94        27.6645  -46.2652  -58.0203 H         1 UNK         0.0790 
     95 H95        26.0418  -45.5909  -57.9728 H         1 UNK         0.0790 
     96 H96        27.8912  -48.6339  -58.4495 H         1 UNK         0.3215 
     97 H97        27.8115  -51.7336  -58.2307 H         1 UNK         0.0863 
     98 H98        27.4846  -52.8209  -60.4696 H         1 UNK         0.0808 
     99 H99        26.3303  -51.5609  -60.9057 H         1 UNK         0.0808 
    100 H100       25.9803  -52.6591  -59.5816 H         1 UNK         0.0808 
    101 H101       29.5286  -50.7422  -59.1619 H         1 UNK         0.3118 
    102 H102       30.6074  -49.6605  -61.7266 H         1 UNK         0.0546 
    103 H103       29.4645  -46.9491  -60.8601 H         1 UNK         0.0828 
    104 H104       29.4577  -47.6134  -62.4861 H         1 UNK         0.0828 
    105 H105       30.9796  -47.1725  -61.7336 H         1 UNK         0.0828 
    106 H106       31.8843  -49.5637  -59.9246 H         1 UNK         0.3005 
    107 H107       32.5857  -49.4433  -57.8838 H         1 UNK         0.1257 
    108 H108       31.7232  -46.7127  -56.7830 H         1 UNK         0.0775 
    109 H109       32.9069  -47.6887  -55.9757 H         1 UNK         0.0775 
    110 H110       33.8035  -45.0772  -59.5764 H         1 UNK         0.0840 
    111 H111       32.2411  -45.8527  -59.4994 H         1 UNK         0.0840 
    112 H112       30.9986  -49.0404  -55.5379 H         1 UNK         0.2987 
    113 H113       28.9066  -50.7916  -55.2460 H         1 UNK         0.0785 
    114 H114       28.9819  -53.1698  -54.5389 H         1 UNK         0.0798 
    115 H115       30.4810  -53.4035  -55.4396 H         1 UNK         0.0798 
    116 H116       28.9854  -53.0329  -56.2856 H         1 UNK         0.0798 
    117 H117       30.9210  -51.8723  -53.5272 H         1 UNK         0.3079 
    118 H118       30.9185  -50.6566  -51.3958 H         1 UNK         0.0794 
    119 H119       33.0873  -51.0728  -52.6185 H         1 UNK         0.0786 
    120 H120       33.3758  -50.1019  -51.1868 H         1 UNK         0.0786 
    121 H121       33.3458  -49.3398  -52.7752 H         1 UNK         0.0786 
    122 H122       30.9054  -47.8273  -52.0384 H         1 UNK         0.3032 
    123 H123       29.9415  -46.5345  -50.1205 H         1 UNK         0.1094 
    124 H124       31.7646  -46.8749  -47.6768 H         1 UNK         0.0794 
    125 H125       30.6045  -45.5705  -47.9295 H         1 UNK         0.0794 
    126 H126       30.0413  -47.2210  -47.7301 H         1 UNK         0.0794 
    127 H127       32.7107  -45.7153  -49.6204 H         1 UNK         0.3016 
@<TRIPOS>BOND
     1    1    2 1    
     2    1   67 1    
     3    1   68 1    
     4    1   69 1    
     5    2    3 2    
     6    2    4 am   BACKBONE|DICT|INTERRES
     7    4    5 1    
     8    4   70 1    
     9    5    6 1    
    10    5   65 1    
    11    5   71 1    
    12    6    7 1    
    13    6   72 1    
    14    6   73 1    
    15    7    8 1    
    16    8    9 1    
    17    8   74 1    
    18    8   75 1    
    19    9   10 ar   
    20    9   14 ar   
    21   10   11 ar   
    22   10   76 1    
    23   11   12 ar   
    24   11   48 1    
    25   12   13 ar   
    26   12   77 1    
    27   13   14 ar   
    28   13   15 1    
    29   14   78 1    
    30   15   16 1    
    31   15   79 1    
    32   15   80 1    
    33   16   17 1    
    34   17   18 1    
    35   17   81 1    
    36   17   82 1    
    37   18   19 1    
    38   18   22 1    
    39   18   83 1    
    40   19   20 am   BACKBONE|DICT|INTERRES
    41   19   21 2    
    42   20   84 1    
    43   20   85 1    
    44   22   23 am   BACKBONE|DICT|INTERRES
    45   22   86 1    
    46   23   24 2    
    47   23   25 1    
    48   25   26 1    
    49   25   27 1    
    50   25   87 1    
    51   26   88 1    
    52   26   89 1    
    53   26   90 1    
    54   27   28 am   BACKBONE|DICT|INTERRES
    55   27   91 1    
    56   28   29 2    
    57   28   30 1    
    58   30   31 1    
    59   30   32 1    
    60   30   92 1    
    61   31   93 1    
    62   31   94 1    
    63   31   95 1    
    64   32   33 am   BACKBONE|DICT|INTERRES
    65   32   96 1    
    66   33   34 2    
    67   33   35 1    
    68   35   36 1    
    69   35   37 1    
    70   35   97 1    
    71   36   98 1    
    72   36   99 1    
    73   36  100 1    
    74   37   38 am   BACKBONE|DICT|INTERRES
    75   37  101 1    
    76   38   39 2    
    77   38   40 1    
    78   40   41 1    
    79   40   42 1    
    80   40  102 1    
    81   41  103 1    
    82   41  104 1    
    83   41  105 1    
    84   42   43 am   BACKBONE|DICT|INTERRES
    85   42  106 1    
    86   43   44 2    
    87   43   45 1    
    88   45   46 1    
    89   45   49 1    
    90   45  107 1    
    91   46   47 1    
    92   46  108 1    
    93   46  109 1    
    94   47   48 1    
    95   48  110 1    
    96   48  111 1    
    97   49   50 am   BACKBONE|DICT|INTERRES
    98   49  112 1    
    99   50   51 2    
   100   50   52 1    
   101   52   53 1    
   102   52   54 1    
   103   52  113 1    
   104   53  114 1    
   105   53  115 1    
   106   53  116 1    
   107   54   55 am   BACKBONE|DICT|INTERRES
   108   54  117 1    
   109   55   56 2    
   110   55   57 1    
   111   57   58 1    
   112   57   59 1    
   113   57  118 1    
   114   58  119 1    
   115   58  120 1    
   116   58  121 1    
   117   59   60 am   BACKBONE|DICT|INTERRES
   118   59  122 1    
   119   60   61 2    
   120   60   62 1    
   121   62   63 1    
   122   62   64 1    
   123   62  123 1    
   124   63  124 1    
   125   63  125 1    
   126   63  126 1    
   127   64   65 am   BACKBONE|DICT|INTERRES
   128   64  127 1    
   129   65   66 2    
@<TRIPOS>SUBSTRUCTURE
     1 UNK         1 GROUP             0       ****    0 ROOT    
