@<TRIPOS>MOLECULE
3R134
127   129    1
SMALL
USER_CHARGES


@<TRIPOS>ATOM
      1 CA         27.7649  -44.1758  -49.3972 C.3       0 UNK        -0.1968 
      2 C          29.1922  -44.4881  -49.8229 C.2       0 UNK         0.4852 
      3 O          30.0527  -44.7075  -48.9684 O.2       0 UNK        -0.5359 
      4 N          29.4473  -44.5016  -51.1356 N.am      1 UNK        -0.4300 
      5 CA         30.7335  -44.8508  -51.7447 C.3       1 UNK         0.0863 
      6 C6         30.8114  -44.3675  -53.2105 C.3       11 UNK        -0.0953 
      7 S7         30.6785  -42.5560  -53.3675 S.3       11 UNK        -0.2369 
      8 C8         32.1577  -42.1656  -54.3597 C.3       11 UNK         0.0226 
      9 C9         32.2100  -42.9357  -55.6756 C.ar      11 UNK        -0.0699 
     10 C10        33.3583  -43.6535  -56.0232 C.ar      11 UNK        -0.0804 
     11 C11        33.4320  -44.3504  -57.2340 C.ar      11 UNK        -0.0871 
     12 C12        32.3188  -44.3482  -58.0873 C.ar      11 UNK        -0.1008 
     13 C13        31.1600  -43.6342  -57.7501 C.ar      11 UNK        -0.0735 
     14 C14        31.1232  -42.9168  -56.5533 C.ar      11 UNK        -0.0945 
     15 C15        29.9643  -43.5909  -58.6948 C.3       11 UNK         0.0169 
     16 S16        28.5268  -44.5117  -58.0488 S.3       11 UNK        -0.2669 
     17 C17        27.4684  -43.2315  -57.2826 C.3       11 UNK        -0.0850 
     18 CA         27.3319  -43.3182  -55.7343 C.3       10 UNK         0.0855 
     19 C          26.3574  -42.2134  -55.2277 C.2       10 UNK         0.5543 
     20 N          25.1824  -42.5515  -54.7103 N.am      10 UNK        -0.7343 
     21 O          26.6738  -41.0298  -55.3152 O.2       10 UNK        -0.5027 
     22 N          27.0363  -44.6844  -55.2613 N.am      10 UNK        -0.4495 
     23 C          27.1038  -45.0844  -53.9820 C.2       10 UNK         0.4903 
     24 O          27.3530  -44.3232  -53.0466 O.2       10 UNK        -0.4860 
     25 CA         26.9365  -46.5890  -53.6805 C.3       9 UNK         0.0227 
     26 CB         26.1673  -46.8375  -52.3660 C.3       9 UNK        -0.1964 
     27 N          26.3838  -47.3920  -54.7809 N.am      9 UNK        -0.4231 
     28 C          25.1519  -47.3308  -55.3087 C.2       9 UNK         0.5014 
     29 O          24.2953  -46.5245  -54.9439 O.2       9 UNK        -0.5270 
     30 CA         24.8231  -48.3145  -56.4516 C.3       8 UNK         0.0284 
     31 CB         24.1310  -47.5914  -57.6214 C.3       8 UNK        -0.1977 
     32 N          26.0092  -49.0012  -56.9720 N.am      8 UNK        -0.4342 
     33 C          26.4932  -50.1843  -56.5776 C.2       8 UNK         0.5039 
     34 O          25.9757  -50.8744  -55.7002 O.2       8 UNK        -0.5547 
     35 CA         27.7948  -50.6638  -57.2550 C.3       7 UNK         0.0281 
     36 CB         27.5511  -51.0651  -58.7232 C.3       7 UNK        -0.1963 
     37 N          28.9228  -49.7240  -57.1310 N.am      7 UNK        -0.4444 
     38 C          29.0103  -48.4663  -57.5887 C.2       7 UNK         0.5104 
     39 O          28.1518  -47.9365  -58.2944 O.2       7 UNK        -0.5100 
     40 CA         30.2153  -47.6285  -57.1432 C.3       6 UNK         0.0396 
     41 CB         29.9174  -46.9016  -55.8280 C.3       6 UNK        -0.1801 
     42 N          31.4543  -48.3671  -56.9612 N.am      6 UNK        -0.4747 
     43 C          32.2459  -48.7591  -57.9643 C.2       6 UNK         0.5012 
     44 O          31.8954  -48.8263  -59.1432 O.2       6 UNK        -0.5003 
     45 CA         33.6985  -49.0662  -57.5663 C.3       5 UNK         0.0782 
     46 C46        34.4461  -47.7736  -57.1400 C.3       11 UNK        -0.0868 
     47 S47        34.6394  -46.5863  -58.5147 S.3       11 UNK        -0.2515 
     48 C48        34.7630  -44.9933  -57.6340 C.3       11 UNK         0.0199 
     49 N          33.6947  -50.0630  -56.4963 N.am      5 UNK        -0.4607 
     50 C          33.7766  -51.3847  -56.6978 C.2       4 UNK         0.5031 
     51 O          34.0314  -51.8981  -57.7874 O.2       4 UNK        -0.5119 
     52 CA         33.5058  -52.2968  -55.4854 C.3       4 UNK         0.0263 
     53 CB         34.8180  -52.6203  -54.7530 C.3       4 UNK        -0.1967 
     54 N          32.5438  -51.7351  -54.5316 N.am      4 UNK        -0.4237 
     55 C          31.2696  -51.4255  -54.8146 C.2       3 UNK         0.4908 
     56 O          30.7344  -51.6458  -55.8998 O.2       3 UNK        -0.5102 
     57 CA         30.4573  -50.6988  -53.7293 C.3       3 UNK         0.0241 
     58 CB         29.5743  -51.6939  -52.9608 C.3       3 UNK        -0.1971 
     59 N          31.2561  -49.9175  -52.7788 N.am      3 UNK        -0.4139 
     60 C          32.0755  -48.9058  -53.0970 C.2       2 UNK         0.5016 
     61 O          32.3371  -48.5648  -54.2542 O.2       2 UNK        -0.5319 
     62 CA         32.7171  -48.1500  -51.9222 C.3       2 UNK         0.0286 
     63 CB         34.2504  -48.1734  -52.0385 C.3       2 UNK        -0.1963 
     64 N          32.2586  -46.7604  -51.8616 N.am      2 UNK        -0.4790 
     65 C          30.9879  -46.3711  -51.6796 C.2       1 UNK         0.5024 
     66 O          30.0507  -47.1543  -51.5020 O.2       1 UNK        -0.4888 
     67 H67        27.3375  -45.0260  -48.8665 H         1 UNK         0.0892 
     68 H68        27.1257  -43.9532  -50.2518 H         1 UNK         0.0892 
     69 H69        27.7510  -43.3137  -48.7310 H         1 UNK         0.0892 
     70 H70        28.6887  -44.3351  -51.7945 H         1 UNK         0.3107 
     71 H71        31.5236  -44.3577  -51.1742 H         1 UNK         0.0773 
     72 H72        30.0144  -44.8114  -53.8062 H         1 UNK         0.0680 
     73 H73        31.7462  -44.6962  -53.6671 H         1 UNK         0.0680 
     74 H74        32.1658  -41.0965  -54.5746 H         1 UNK         0.0650 
     75 H75        33.0431  -42.3678  -53.7550 H         1 UNK         0.0650 
     76 H76        34.2127  -43.6422  -55.3601 H         1 UNK         0.1397 
     77 H77        32.3662  -44.8753  -59.0302 H         1 UNK         0.1363 
     78 H78        30.2425  -42.3448  -56.3003 H         1 UNK         0.1355 
     79 H79        29.6943  -42.5553  -58.9043 H         1 UNK         0.0707 
     80 H80        30.2364  -44.0275  -59.6568 H         1 UNK         0.0707 
     81 H81        26.4829  -43.3198  -57.7440 H         1 UNK         0.1034 
     82 H82        27.8360  -42.2446  -57.5690 H         1 UNK         0.1034 
     83 H83        28.3043  -43.0655  -55.3107 H         1 UNK         0.0482 
     84 H84        24.5573  -41.8319  -54.3839 H         1 UNK         0.3460 
     85 H85        24.9245  -43.5231  -54.6320 H         1 UNK         0.3460 
     86 H86        26.8219  -45.3621  -55.9766 H         1 UNK         0.2989 
     87 H87        27.9482  -46.9654  -53.5255 H         1 UNK         0.0559 
     88 H88        26.0731  -47.9028  -52.1561 H         1 UNK         0.0848 
     89 H89        25.1648  -46.4095  -52.3947 H         1 UNK         0.0848 
     90 H90        26.6868  -46.3902  -51.5176 H         1 UNK         0.0848 
     91 H91        26.9976  -48.0986  -55.1582 H         1 UNK         0.3144 
     92 H92        24.1277  -49.0532  -56.0480 H         1 UNK         0.0727 
     93 H93        23.8750  -48.2872  -58.4207 H         1 UNK         0.0790 
     94 H94        24.7660  -46.8124  -58.0457 H         1 UNK         0.0790 
     95 H95        23.2023  -47.1179  -57.3000 H         1 UNK         0.0790 
     96 H96        26.5682  -48.4935  -57.6587 H         1 UNK         0.3215 
     97 H97        28.1053  -51.5651  -56.7236 H         1 UNK         0.0863 
     98 H98        28.4508  -51.4899  -59.1685 H         1 UNK         0.0808 
     99 H99        27.2421  -50.2198  -59.3385 H         1 UNK         0.0808 
    100 H100       26.7672  -51.8202  -58.7942 H         1 UNK         0.0808 
    101 H101       29.7182  -50.0969  -56.6214 H         1 UNK         0.3118 
    102 H102       30.3856  -46.8721  -57.9124 H         1 UNK         0.0546 
    103 H103       28.9896  -46.3433  -55.8987 H         1 UNK         0.0828 
    104 H104       30.7075  -46.1867  -55.5979 H         1 UNK         0.0828 
    105 H105       29.8272  -47.5895  -54.9876 H         1 UNK         0.0828 
    106 H106       31.8287  -48.3790  -56.0142 H         1 UNK         0.3005 
    107 H107       34.2037  -49.4731  -58.4457 H         1 UNK         0.1257 
    108 H108       35.4445  -48.0277  -56.7808 H         1 UNK         0.0775 
    109 H109       33.9419  -47.2840  -56.3039 H         1 UNK         0.0775 
    110 H110       35.4048  -45.1293  -56.7619 H         1 UNK         0.0840 
    111 H111       35.2861  -44.2909  -58.2841 H         1 UNK         0.0840 
    112 H112       33.4429  -49.7242  -55.5746 H         1 UNK         0.2987 
    113 H113       33.0851  -53.2297  -55.8666 H         1 UNK         0.0785 
    114 H114       35.2738  -51.7262  -54.3255 H         1 UNK         0.0798 
    115 H115       35.5459  -53.0627  -55.4348 H         1 UNK         0.0798 
    116 H116       34.6573  -53.3357  -53.9462 H         1 UNK         0.0798 
    117 H117       32.8910  -51.5204  -53.6085 H         1 UNK         0.3079 
    118 H118       29.7989  -49.9953  -54.2420 H         1 UNK         0.0794 
    119 H119       30.1707  -52.4086  -52.3922 H         1 UNK         0.0786 
    120 H120       28.9435  -52.2651  -53.6440 H         1 UNK         0.0786 
    121 H121       28.9095  -51.1805  -52.2656 H         1 UNK         0.0786 
    122 H122       31.0949  -50.1128  -51.8009 H         1 UNK         0.3032 
    123 H123       32.4368  -48.6371  -50.9857 H         1 UNK         0.1094 
    124 H124       34.5962  -47.6680  -52.9416 H         1 UNK         0.0794 
    125 H125       34.7216  -47.6903  -51.1823 H         1 UNK         0.0794 
    126 H126       34.6241  -49.1976  -52.0765 H         1 UNK         0.0794 
    127 H127       32.9610  -46.0547  -52.0298 H         1 UNK         0.3016 
@<TRIPOS>BOND
     1    1    2 1    
     2    1   67 1    
     3    1   68 1    
     4    1   69 1    
     5    2    3 2    
     6    2    4 am   BACKBONE|DICT|INTERRES
     7    4    5 1    
     8    4   70 1    
     9    5    6 1    
    10    5   65 1    
    11    5   71 1    
    12    6    7 1    
    13    6   72 1    
    14    6   73 1    
    15    7    8 1    
    16    8    9 1    
    17    8   74 1    
    18    8   75 1    
    19    9   10 ar   
    20    9   14 ar   
    21   10   11 ar   
    22   10   76 1    
    23   11   12 ar   
    24   11   48 1    
    25   12   13 ar   
    26   12   77 1    
    27   13   14 ar   
    28   13   15 1    
    29   14   78 1    
    30   15   16 1    
    31   15   79 1    
    32   15   80 1    
    33   16   17 1    
    34   17   18 1    
    35   17   81 1    
    36   17   82 1    
    37   18   19 1    
    38   18   22 1    
    39   18   83 1    
    40   19   20 am   BACKBONE|DICT|INTERRES
    41   19   21 2    
    42   20   84 1    
    43   20   85 1    
    44   22   23 am   BACKBONE|DICT|INTERRES
    45   22   86 1    
    46   23   24 2    
    47   23   25 1    
    48   25   26 1    
    49   25   27 1    
    50   25   87 1    
    51   26   88 1    
    52   26   89 1    
    53   26   90 1    
    54   27   28 am   BACKBONE|DICT|INTERRES
    55   27   91 1    
    56   28   29 2    
    57   28   30 1    
    58   30   31 1    
    59   30   32 1    
    60   30   92 1    
    61   31   93 1    
    62   31   94 1    
    63   31   95 1    
    64   32   33 am   BACKBONE|DICT|INTERRES
    65   32   96 1    
    66   33   34 2    
    67   33   35 1    
    68   35   36 1    
    69   35   37 1    
    70   35   97 1    
    71   36   98 1    
    72   36   99 1    
    73   36  100 1    
    74   37   38 am   BACKBONE|DICT|INTERRES
    75   37  101 1    
    76   38   39 2    
    77   38   40 1    
    78   40   41 1    
    79   40   42 1    
    80   40  102 1    
    81   41  103 1    
    82   41  104 1    
    83   41  105 1    
    84   42   43 am   BACKBONE|DICT|INTERRES
    85   42  106 1    
    86   43   44 2    
    87   43   45 1    
    88   45   46 1    
    89   45   49 1    
    90   45  107 1    
    91   46   47 1    
    92   46  108 1    
    93   46  109 1    
    94   47   48 1    
    95   48  110 1    
    96   48  111 1    
    97   49   50 am   BACKBONE|DICT|INTERRES
    98   49  112 1    
    99   50   51 2    
   100   50   52 1    
   101   52   53 1    
   102   52   54 1    
   103   52  113 1    
   104   53  114 1    
   105   53  115 1    
   106   53  116 1    
   107   54   55 am   BACKBONE|DICT|INTERRES
   108   54  117 1    
   109   55   56 2    
   110   55   57 1    
   111   57   58 1    
   112   57   59 1    
   113   57  118 1    
   114   58  119 1    
   115   58  120 1    
   116   58  121 1    
   117   59   60 am   BACKBONE|DICT|INTERRES
   118   59  122 1    
   119   60   61 2    
   120   60   62 1    
   121   62   63 1    
   122   62   64 1    
   123   62  123 1    
   124   63  124 1    
   125   63  125 1    
   126   63  126 1    
   127   64   65 am   BACKBONE|DICT|INTERRES
   128   64  127 1    
   129   65   66 2    
@<TRIPOS>SUBSTRUCTURE
     1 UNK         1 GROUP             0       ****    0 ROOT    
