@<TRIPOS>MOLECULE
3R134
127   129    1
SMALL
USER_CHARGES


@<TRIPOS>ATOM
      1 CA         30.5861  -45.5167  -48.1773 C.3       0 UNK        -0.1968 
      2 C          31.9688  -45.6144  -48.8050 C.2       0 UNK         0.4852 
      3 O          32.9292  -45.9651  -48.1181 O.2       0 UNK        -0.5359 
      4 N          32.0750  -45.3091  -50.1053 N.am      1 UNK        -0.4300 
      5 CA         33.3273  -45.3209  -50.8767 C.3       1 UNK         0.0863 
      6 C6         33.2038  -44.5138  -52.1943 C.3       11 UNK        -0.0953 
      7 S7         32.5726  -42.8191  -51.9511 S.3       11 UNK        -0.2369 
      8 C8         33.0217  -42.0382  -53.5332 C.3       11 UNK         0.0226 
      9 C9         32.3721  -42.7344  -54.7212 C.ar      11 UNK        -0.0699 
     10 C10        33.1168  -43.6141  -55.5117 C.ar      11 UNK        -0.0804 
     11 C11        32.5324  -44.2556  -56.6071 C.ar      11 UNK        -0.0871 
     12 C12        31.1864  -44.0181  -56.9030 C.ar      11 UNK        -0.1008 
     13 C13        30.4263  -43.1457  -56.1166 C.ar      11 UNK        -0.0735 
     14 C14        31.0302  -42.4977  -55.0333 C.ar      11 UNK        -0.0945 
     15 C15        28.9586  -42.8953  -56.4418 C.3       11 UNK         0.0169 
     16 S16        27.8774  -43.4340  -55.0822 S.3       11 UNK        -0.2669 
     17 C17        26.2163  -43.2686  -55.8177 C.3       11 UNK        -0.0850 
     18 CA         25.6107  -44.6571  -56.1704 C.3       10 UNK         0.0855 
     19 C          24.0632  -44.6528  -56.3449 C.2       10 UNK         0.5543 
     20 N          23.4654  -45.7873  -56.6881 N.am      10 UNK        -0.7343 
     21 O          23.3978  -43.6349  -56.1664 O.2       10 UNK        -0.5027 
     22 N          26.3179  -45.3164  -57.2802 N.am      10 UNK        -0.4495 
     23 C          26.2496  -44.9824  -58.5779 C.2       10 UNK         0.4903 
     24 O          25.6383  -44.0042  -59.0084 O.2       10 UNK        -0.4860 
     25 CA         26.9701  -45.9015  -59.5775 C.3       9 UNK         0.0227 
     26 CB         28.3697  -45.3596  -59.9105 C.3       9 UNK        -0.1964 
     27 N          27.0786  -47.2670  -59.0566 N.am      9 UNK        -0.4231 
     28 C          26.2640  -48.2736  -59.3982 C.2       9 UNK         0.5014 
     29 O          25.3997  -48.1923  -60.2724 O.2       9 UNK        -0.5270 
     30 CA         26.4278  -49.6023  -58.6402 C.3       8 UNK         0.0284 
     31 CB         27.5096  -50.4763  -59.2958 C.3       8 UNK        -0.1977 
     32 N          26.7076  -49.4644  -57.2071 N.am      8 UNK        -0.4342 
     33 C          25.8601  -48.9401  -56.3081 C.2       8 UNK         0.5039 
     34 O          24.8099  -48.3693  -56.6042 O.2       8 UNK        -0.5547 
     35 CA         26.2456  -49.0775  -54.8287 C.3       7 UNK         0.0281 
     36 CB         26.1749  -50.5455  -54.3740 C.3       7 UNK        -0.1963 
     37 N          27.5929  -48.5599  -54.6094 N.am      7 UNK        -0.4444 
     38 C          27.8747  -47.3885  -54.0239 C.2       7 UNK         0.5104 
     39 O          27.0374  -46.6906  -53.4525 O.2       7 UNK        -0.5100 
     40 CA         29.3377  -46.9026  -54.0836 C.3       6 UNK         0.0396 
     41 CB         30.0272  -47.1500  -52.7366 C.3       6 UNK        -0.1801 
     42 N          30.1396  -47.5037  -55.1564 N.am      6 UNK        -0.4747 
     43 C          29.8506  -47.4245  -56.4652 C.2       6 UNK         0.5012 
     44 O          28.8835  -46.8101  -56.9148 O.2       6 UNK        -0.5003 
     45 CA         30.6997  -48.2649  -57.4377 C.3       5 UNK         0.0782 
     46 C46        31.8148  -47.4464  -58.1284 C.3       11 UNK        -0.0868 
     47 S47        33.1768  -46.9287  -57.0265 S.3       11 UNK        -0.2515 
     48 C48        33.3731  -45.1763  -57.4809 C.3       11 UNK         0.0199 
     49 N          31.1915  -49.5159  -56.8553 N.am      5 UNK        -0.4607 
     50 C          30.4357  -50.5018  -56.3565 C.2       4 UNK         0.5031 
     51 O          29.2052  -50.4460  -56.3070 O.2       4 UNK        -0.5119 
     52 CA         31.1488  -51.7472  -55.7953 C.3       4 UNK         0.0263 
     53 CB         31.3014  -52.8265  -56.8840 C.3       4 UNK        -0.1967 
     54 N          32.4250  -51.4758  -55.1125 N.am      4 UNK        -0.4237 
     55 C          33.5757  -51.0050  -55.6195 C.2       3 UNK         0.4908 
     56 O          33.7525  -50.7905  -56.8197 O.2       3 UNK        -0.5102 
     57 CA         34.7057  -50.6893  -54.6156 C.3       3 UNK         0.0241 
     58 CB         35.6592  -49.5929  -55.1377 C.3       3 UNK        -0.1971 
     59 N          34.2478  -50.3487  -53.2586 N.am      3 UNK        -0.4139 
     60 C          33.4096  -49.3625  -52.8993 C.2       2 UNK         0.5016 
     61 O          32.8007  -48.6495  -53.7010 O.2       2 UNK        -0.5319 
     62 CA         33.1648  -49.1703  -51.3869 C.3       2 UNK         0.0286 
     63 CB         34.2397  -49.8124  -50.4787 C.3       2 UNK        -0.1963 
     64 N          32.9665  -47.7579  -51.0410 N.am      2 UNK        -0.4790 
     65 C          33.8417  -46.7479  -51.1806 C.2       1 UNK         0.5024 
     66 O          35.0099  -46.8959  -51.5433 O.2       1 UNK        -0.4888 
     67 H67        30.2882  -46.4837  -47.7729 H         1 UNK         0.0892 
     68 H68        30.5953  -44.7943  -47.3615 H         1 UNK         0.0892 
     69 H69        29.8311  -45.2035  -48.8983 H         1 UNK         0.0892 
     70 H70        31.2617  -44.9845  -50.6085 H         1 UNK         0.3107 
     71 H71        34.0926  -44.8382  -50.2647 H         1 UNK         0.0773 
     72 H72        34.1784  -44.4467  -52.6818 H         1 UNK         0.0680 
     73 H73        32.5450  -45.0195  -52.9018 H         1 UNK         0.0680 
     74 H74        34.1081  -42.0329  -53.6351 H         1 UNK         0.0650 
     75 H75        32.7127  -40.9922  -53.5102 H         1 UNK         0.0650 
     76 H76        34.1561  -43.7975  -55.2752 H         1 UNK         0.1397 
     77 H77        30.7306  -44.5121  -57.7473 H         1 UNK         0.1363 
     78 H78        30.4487  -41.8214  -54.4216 H         1 UNK         0.1355 
     79 H79        28.6719  -43.4215  -57.3531 H         1 UNK         0.0707 
     80 H80        28.8037  -41.8321  -56.6301 H         1 UNK         0.0707 
     81 H81        26.2415  -42.6149  -56.6908 H         1 UNK         0.1034 
     82 H82        25.5983  -42.7571  -55.0777 H         1 UNK         0.1034 
     83 H83        25.7677  -45.2985  -55.3038 H         1 UNK         0.0482 
     84 H84        22.4654  -45.8018  -56.8064 H         1 UNK         0.3460 
     85 H85        23.9973  -46.6497  -56.7816 H         1 UNK         0.3460 
     86 H86        26.9162  -46.0876  -57.0158 H         1 UNK         0.2989 
     87 H87        26.3888  -45.8972  -60.5018 H         1 UNK         0.0559 
     88 H88        28.3079  -44.3533  -60.3269 H         1 UNK         0.0848 
     89 H89        28.8717  -45.9856  -60.6481 H         1 UNK         0.0848 
     90 H90        29.0049  -45.3062  -59.0288 H         1 UNK         0.0848 
     91 H91        27.7400  -47.3986  -58.2975 H         1 UNK         0.3144 
     92 H92        25.4781  -50.1349  -58.7258 H         1 UNK         0.0727 
     93 H93        27.5669  -51.4574  -58.8238 H         1 UNK         0.0790 
     94 H94        28.4964  -50.0193  -59.2348 H         1 UNK         0.0790 
     95 H95        27.2917  -50.6387  -60.3524 H         1 UNK         0.0790 
     96 H96        27.5627  -49.9053  -56.8716 H         1 UNK         0.3215 
     97 H97        25.5170  -48.5116  -54.2439 H         1 UNK         0.0863 
     98 H98        26.3779  -50.6356  -53.3069 H         1 UNK         0.0808 
     99 H99        26.8912  -51.1757  -54.9024 H         1 UNK         0.0808 
    100 H100       25.1816  -50.9604  -54.5505 H         1 UNK         0.0808 
    101 H101       28.3495  -49.0651  -55.0568 H         1 UNK         0.3118 
    102 H102       29.3199  -45.8268  -54.2620 H         1 UNK         0.0546 
    103 H103       29.4781  -46.6786  -51.9204 H         1 UNK         0.0828 
    104 H104       31.0313  -46.7328  -52.7394 H         1 UNK         0.0828 
    105 H105       30.1042  -48.2146  -52.5133 H         1 UNK         0.0828 
    106 H106       30.9727  -48.0111  -54.8763 H         1 UNK         0.3005 
    107 H107       30.0123  -48.5648  -58.2298 H         1 UNK         0.1257 
    108 H108       32.2558  -48.0440  -58.9277 H         1 UNK         0.0775 
    109 H109       31.3821  -46.5787  -58.6277 H         1 UNK         0.0775 
    110 H110       34.4283  -44.9164  -57.3825 H         1 UNK         0.0840 
    111 H111       33.1325  -45.0249  -58.5342 H         1 UNK         0.0840 
    112 H112       32.1978  -49.6551  -56.8669 H         1 UNK         0.2987 
    113 H113       30.4884  -52.1527  -55.0270 H         1 UNK         0.0785 
    114 H114       31.7427  -53.7376  -56.4802 H         1 UNK         0.0798 
    115 H115       31.9259  -52.4890  -57.7116 H         1 UNK         0.0798 
    116 H116       30.3303  -53.0944  -57.3025 H         1 UNK         0.0798 
    117 H117       32.3957  -51.5892  -54.1092 H         1 UNK         0.3079 
    118 H118       35.2831  -51.6101  -54.5215 H         1 UNK         0.0794 
    119 H119       36.1122  -49.8796  -56.0875 H         1 UNK         0.0786 
    120 H120       36.4727  -49.4074  -54.4364 H         1 UNK         0.0786 
    121 H121       35.1353  -48.6497  -55.2977 H         1 UNK         0.0786 
    122 H122       34.6670  -50.8903  -52.5153 H         1 UNK         0.3032 
    123 H123       32.2170  -49.6684  -51.1760 H         1 UNK         0.1094 
    124 H124       35.2423  -49.4505  -50.7103 H         1 UNK         0.0794 
    125 H125       34.0462  -49.5912  -49.4288 H         1 UNK         0.0794 
    126 H126       34.2468  -50.8988  -50.5728 H         1 UNK         0.0794 
    127 H127       32.0348  -47.5126  -50.7407 H         1 UNK         0.3016 
@<TRIPOS>BOND
     1    1    2 1    
     2    1   67 1    
     3    1   68 1    
     4    1   69 1    
     5    2    3 2    
     6    2    4 am   BACKBONE|DICT|INTERRES
     7    4    5 1    
     8    4   70 1    
     9    5    6 1    
    10    5   65 1    
    11    5   71 1    
    12    6    7 1    
    13    6   72 1    
    14    6   73 1    
    15    7    8 1    
    16    8    9 1    
    17    8   74 1    
    18    8   75 1    
    19    9   10 ar   
    20    9   14 ar   
    21   10   11 ar   
    22   10   76 1    
    23   11   12 ar   
    24   11   48 1    
    25   12   13 ar   
    26   12   77 1    
    27   13   14 ar   
    28   13   15 1    
    29   14   78 1    
    30   15   16 1    
    31   15   79 1    
    32   15   80 1    
    33   16   17 1    
    34   17   18 1    
    35   17   81 1    
    36   17   82 1    
    37   18   19 1    
    38   18   22 1    
    39   18   83 1    
    40   19   20 am   BACKBONE|DICT|INTERRES
    41   19   21 2    
    42   20   84 1    
    43   20   85 1    
    44   22   23 am   BACKBONE|DICT|INTERRES
    45   22   86 1    
    46   23   24 2    
    47   23   25 1    
    48   25   26 1    
    49   25   27 1    
    50   25   87 1    
    51   26   88 1    
    52   26   89 1    
    53   26   90 1    
    54   27   28 am   BACKBONE|DICT|INTERRES
    55   27   91 1    
    56   28   29 2    
    57   28   30 1    
    58   30   31 1    
    59   30   32 1    
    60   30   92 1    
    61   31   93 1    
    62   31   94 1    
    63   31   95 1    
    64   32   33 am   BACKBONE|DICT|INTERRES
    65   32   96 1    
    66   33   34 2    
    67   33   35 1    
    68   35   36 1    
    69   35   37 1    
    70   35   97 1    
    71   36   98 1    
    72   36   99 1    
    73   36  100 1    
    74   37   38 am   BACKBONE|DICT|INTERRES
    75   37  101 1    
    76   38   39 2    
    77   38   40 1    
    78   40   41 1    
    79   40   42 1    
    80   40  102 1    
    81   41  103 1    
    82   41  104 1    
    83   41  105 1    
    84   42   43 am   BACKBONE|DICT|INTERRES
    85   42  106 1    
    86   43   44 2    
    87   43   45 1    
    88   45   46 1    
    89   45   49 1    
    90   45  107 1    
    91   46   47 1    
    92   46  108 1    
    93   46  109 1    
    94   47   48 1    
    95   48  110 1    
    96   48  111 1    
    97   49   50 am   BACKBONE|DICT|INTERRES
    98   49  112 1    
    99   50   51 2    
   100   50   52 1    
   101   52   53 1    
   102   52   54 1    
   103   52  113 1    
   104   53  114 1    
   105   53  115 1    
   106   53  116 1    
   107   54   55 am   BACKBONE|DICT|INTERRES
   108   54  117 1    
   109   55   56 2    
   110   55   57 1    
   111   57   58 1    
   112   57   59 1    
   113   57  118 1    
   114   58  119 1    
   115   58  120 1    
   116   58  121 1    
   117   59   60 am   BACKBONE|DICT|INTERRES
   118   59  122 1    
   119   60   61 2    
   120   60   62 1    
   121   62   63 1    
   122   62   64 1    
   123   62  123 1    
   124   63  124 1    
   125   63  125 1    
   126   63  126 1    
   127   64   65 am   BACKBONE|DICT|INTERRES
   128   64  127 1    
   129   65   66 2    
@<TRIPOS>SUBSTRUCTURE
     1 UNK         1 GROUP             0       ****    0 ROOT    
