@<TRIPOS>MOLECULE
3R134
127   129    1
SMALL
USER_CHARGES


@<TRIPOS>ATOM
      1 CA         32.5845  -50.0720  -57.8811 C.3       0 UNK        -0.1968 
      2 C          32.8312  -49.4387  -56.5209 C.2       0 UNK         0.4852 
      3 O          32.7645  -50.1343  -55.5071 O.2       0 UNK        -0.5359 
      4 N          33.1383  -48.1328  -56.4966 N.am      1 UNK        -0.4300 
      5 CA         33.2917  -47.2848  -55.3026 C.3       1 UNK         0.0863 
      6 C6         33.6748  -45.8307  -55.6709 C.3       11 UNK        -0.0953 
      7 S7         32.5359  -45.0660  -56.8722 S.3       11 UNK        -0.2369 
      8 C8         32.8081  -43.2979  -56.5411 C.3       11 UNK         0.0226 
      9 C9         31.6516  -42.6857  -55.7653 C.ar      11 UNK        -0.0699 
     10 C10        31.4867  -42.9543  -54.4032 C.ar      11 UNK        -0.0804 
     11 C11        30.4257  -42.3867  -53.6879 C.ar      11 UNK        -0.0871 
     12 C12        29.5396  -41.5260  -54.3447 C.ar      11 UNK        -0.1008 
     13 C13        29.7085  -41.2315  -55.7008 C.ar      11 UNK        -0.0735 
     14 C14        30.7586  -41.8235  -56.4074 C.ar      11 UNK        -0.0945 
     15 C15        28.7898  -40.2389  -56.3983 C.3       11 UNK         0.0169 
     16 S16        27.6382  -41.0571  -57.5428 S.3       11 UNK        -0.2669 
     17 C17        26.4443  -41.8240  -56.3915 C.3       11 UNK        -0.0850 
     18 CA         26.6574  -43.3542  -56.1924 C.3       10 UNK         0.0855 
     19 C          25.6377  -43.9546  -55.1765 C.2       10 UNK         0.5543 
     20 N          25.1323  -45.1648  -55.3768 N.am      10 UNK        -0.7343 
     21 O          25.3147  -43.3212  -54.1746 O.2       10 UNK        -0.5027 
     22 N          26.7771  -44.0955  -57.4609 N.am      10 UNK        -0.4495 
     23 C          25.8483  -44.1980  -58.4223 C.2       10 UNK         0.4903 
     24 O          24.7362  -43.6723  -58.3673 O.2       10 UNK        -0.4860 
     25 CA         26.2178  -45.0235  -59.6719 C.3       9 UNK         0.0227 
     26 CB         26.5551  -44.0876  -60.8445 C.3       9 UNK        -0.1964 
     27 N          27.3310  -45.9595  -59.4707 N.am      9 UNK        -0.4231 
     28 C          27.2972  -47.0244  -58.6583 C.2       9 UNK         0.5014 
     29 O          26.2947  -47.3526  -58.0177 O.2       9 UNK        -0.5270 
     30 CA         28.5987  -47.8388  -58.5423 C.3       8 UNK         0.0284 
     31 CB         29.8214  -46.9398  -58.2786 C.3       8 UNK        -0.1977 
     32 N          28.4751  -48.7722  -57.4287 N.am      8 UNK        -0.4342 
     33 C          28.4594  -50.1079  -57.5093 C.2       8 UNK         0.5039 
     34 O          28.6635  -50.7327  -58.5513 O.2       8 UNK        -0.5547 
     35 CA         28.1611  -50.8904  -56.2149 C.3       7 UNK         0.0281 
     36 CB         29.3905  -51.6943  -55.7574 C.3       7 UNK        -0.1963 
     37 N          27.7138  -50.0128  -55.1277 N.am      7 UNK        -0.4444 
     38 C          26.4455  -49.5998  -54.9774 C.2       7 UNK         0.5104 
     39 O          25.5122  -50.0211  -55.6614 O.2       7 UNK        -0.5100 
     40 CA         26.1453  -48.5443  -53.8945 C.3       6 UNK         0.0396 
     41 CB         25.4187  -49.1922  -52.7046 C.3       6 UNK        -0.1801 
     42 N          27.3186  -47.8248  -53.3937 N.am      6 UNK        -0.4747 
     43 C          28.0836  -46.9720  -54.0929 C.2       6 UNK         0.5012 
     44 O          27.8927  -46.6828  -55.2726 O.2       6 UNK        -0.5003 
     45 CA         29.3227  -46.4172  -53.3593 C.3       5 UNK         0.0782 
     46 C46        28.9497  -45.1436  -52.5625 C.3       11 UNK        -0.0868 
     47 S47        30.4000  -44.4084  -51.7352 S.3       11 UNK        -0.2515 
     48 C48        30.2567  -42.6495  -52.1947 C.3       11 UNK         0.0199 
     49 N          29.9609  -47.4373  -52.5094 N.am      5 UNK        -0.4607 
     50 C          30.4136  -48.6170  -52.9502 C.2       4 UNK         0.5031 
     51 O          30.3412  -48.9717  -54.1258 O.2       4 UNK        -0.5119 
     52 CA         30.9484  -49.5964  -51.9062 C.3       4 UNK         0.0263 
     53 CB         29.7868  -50.4535  -51.3613 C.3       4 UNK        -0.1967 
     54 N          31.9634  -50.4353  -52.5398 N.am      4 UNK        -0.4237 
     55 C          32.7834  -51.2834  -51.9060 C.2       3 UNK         0.4908 
     56 O          32.7651  -51.4857  -50.6912 O.2       3 UNK        -0.5102 
     57 CA         33.8274  -52.0025  -52.7699 C.3       3 UNK         0.0241 
     58 CB         33.1676  -53.0038  -53.7349 C.3       3 UNK        -0.1971 
     59 N          34.6100  -51.0192  -53.5166 N.am      3 UNK        -0.4139 
     60 C          35.7014  -50.4041  -53.0375 C.2       2 UNK         0.5016 
     61 O          36.2439  -50.7029  -51.9725 O.2       2 UNK        -0.5319 
     62 CA         36.2943  -49.2539  -53.8736 C.3       2 UNK         0.0286 
     63 CB         37.4399  -49.7683  -54.7603 C.3       2 UNK        -0.1963 
     64 N          35.3086  -48.5686  -54.7130 N.am      2 UNK        -0.4790 
     65 C          34.2877  -47.8281  -54.2549 C.2       1 UNK         0.5024 
     66 O          34.1070  -47.5779  -53.0630 O.2       1 UNK        -0.4888 
     67 H67        33.2762  -50.8985  -58.0406 H         1 UNK         0.0892 
     68 H68        31.5690  -50.4637  -57.9300 H         1 UNK         0.0892 
     69 H69        32.7120  -49.3582  -58.6946 H         1 UNK         0.0892 
     70 H70        33.1901  -47.6284  -57.3701 H         1 UNK         0.3107 
     71 H71        32.3141  -47.2580  -54.8199 H         1 UNK         0.0773 
     72 H72        34.6809  -45.7920  -56.0934 H         1 UNK         0.0680 
     73 H73        33.6964  -45.2142  -54.7705 H         1 UNK         0.0680 
     74 H74        32.9349  -42.7880  -57.4973 H         1 UNK         0.0650 
     75 H75        33.7414  -43.1471  -55.9969 H         1 UNK         0.0650 
     76 H76        32.1852  -43.6065  -53.8984 H         1 UNK         0.1397 
     77 H77        28.7300  -41.0650  -53.7953 H         1 UNK         0.1363 
     78 H78        30.8862  -41.5982  -57.4576 H         1 UNK         0.1355 
     79 H79        28.2311  -39.6432  -55.6747 H         1 UNK         0.0707 
     80 H80        29.3974  -39.5312  -56.9643 H         1 UNK         0.0707 
     81 H81        26.4949  -41.3065  -55.4321 H         1 UNK         0.1034 
     82 H82        25.4408  -41.6309  -56.7739 H         1 UNK         0.1034 
     83 H83        27.6265  -43.4806  -55.7085 H         1 UNK         0.0482 
     84 H84        25.4440  -45.7175  -56.1626 H         1 UNK         0.3460 
     85 H85        24.4743  -45.5424  -54.7154 H         1 UNK         0.3460 
     86 H86        27.6472  -44.5889  -57.5889 H         1 UNK         0.2989 
     87 H87        25.3372  -45.6084  -59.9455 H         1 UNK         0.0559 
     88 H88        27.4355  -43.4786  -60.6346 H         1 UNK         0.0848 
     89 H89        25.7297  -43.4034  -61.0472 H         1 UNK         0.0848 
     90 H90        26.7406  -44.6466  -61.7618 H         1 UNK         0.0848 
     91 H91        28.1853  -45.7592  -59.9708 H         1 UNK         0.3144 
     92 H92        28.7432  -48.3746  -59.4825 H         1 UNK         0.0727 
     93 H93        30.0366  -46.2854  -59.1234 H         1 UNK         0.0790 
     94 H94        30.7158  -47.5381  -58.1094 H         1 UNK         0.0790 
     95 H95        29.6779  -46.3099  -57.3993 H         1 UNK         0.0790 
     96 H96        28.2158  -48.3381  -56.5492 H         1 UNK         0.3215 
     97 H97        27.3677  -51.6047  -56.4455 H         1 UNK         0.0863 
     98 H98        30.2578  -51.0555  -55.5996 H         1 UNK         0.0808 
     99 H99        29.6715  -52.4339  -56.5080 H         1 UNK         0.0808 
    100 H100       29.1956  -52.2313  -54.8291 H         1 UNK         0.0808 
    101 H101       28.4463  -49.6016  -54.5579 H         1 UNK         0.3118 
    102 H102       25.4745  -47.8100  -54.3436 H         1 UNK         0.0546 
    103 H103       26.0466  -49.9275  -52.1999 H         1 UNK         0.0828 
    104 H104       24.5142  -49.7071  -53.0318 H         1 UNK         0.0828 
    105 H105       25.1143  -48.4466  -51.9699 H         1 UNK         0.0828 
    106 H106       27.5804  -48.0100  -52.4364 H         1 UNK         0.3005 
    107 H107       30.0448  -46.1382  -54.1309 H         1 UNK         0.1257 
    108 H108       28.2011  -45.3666  -51.7998 H         1 UNK         0.0775 
    109 H109       28.4964  -44.4030  -53.2248 H         1 UNK         0.0775 
    110 H110       29.2943  -42.2764  -51.8403 H         1 UNK         0.0840 
    111 H111       31.0200  -42.0862  -51.6564 H         1 UNK         0.0840 
    112 H112       30.0563  -47.2018  -51.5318 H         1 UNK         0.2987 
    113 H113       31.4143  -49.0341  -51.0944 H         1 UNK         0.0785 
    114 H114       29.0023  -49.8280  -50.9337 H         1 UNK         0.0798 
    115 H115       30.1168  -51.1291  -50.5726 H         1 UNK         0.0798 
    116 H116       29.3315  -51.0569  -52.1480 H         1 UNK         0.0798 
    117 H117       32.0466  -50.3085  -53.5472 H         1 UNK         0.3079 
    118 H118       34.4874  -52.5670  -52.1073 H         1 UNK         0.0794 
    119 H119       32.6035  -53.7575  -53.1841 H         1 UNK         0.0786 
    120 H120       33.9153  -53.5288  -54.3293 H         1 UNK         0.0786 
    121 H121       32.4745  -52.5207  -54.4241 H         1 UNK         0.0786 
    122 H122       34.1842  -50.6690  -54.3716 H         1 UNK         0.3032 
    123 H123       36.7035  -48.5232  -53.1721 H         1 UNK         0.1094 
    124 H124       38.2061  -50.2613  -54.1601 H         1 UNK         0.0794 
    125 H125       37.0876  -50.4918  -55.4966 H         1 UNK         0.0794 
    126 H126       37.9261  -48.9521  -55.2951 H         1 UNK         0.0794 
    127 H127       35.3717  -48.7219  -55.7092 H         1 UNK         0.3016 
@<TRIPOS>BOND
     1    1    2 1    
     2    1   67 1    
     3    1   68 1    
     4    1   69 1    
     5    2    3 2    
     6    2    4 am   BACKBONE|DICT|INTERRES
     7    4    5 1    
     8    4   70 1    
     9    5    6 1    
    10    5   65 1    
    11    5   71 1    
    12    6    7 1    
    13    6   72 1    
    14    6   73 1    
    15    7    8 1    
    16    8    9 1    
    17    8   74 1    
    18    8   75 1    
    19    9   10 ar   
    20    9   14 ar   
    21   10   11 ar   
    22   10   76 1    
    23   11   12 ar   
    24   11   48 1    
    25   12   13 ar   
    26   12   77 1    
    27   13   14 ar   
    28   13   15 1    
    29   14   78 1    
    30   15   16 1    
    31   15   79 1    
    32   15   80 1    
    33   16   17 1    
    34   17   18 1    
    35   17   81 1    
    36   17   82 1    
    37   18   19 1    
    38   18   22 1    
    39   18   83 1    
    40   19   20 am   BACKBONE|DICT|INTERRES
    41   19   21 2    
    42   20   84 1    
    43   20   85 1    
    44   22   23 am   BACKBONE|DICT|INTERRES
    45   22   86 1    
    46   23   24 2    
    47   23   25 1    
    48   25   26 1    
    49   25   27 1    
    50   25   87 1    
    51   26   88 1    
    52   26   89 1    
    53   26   90 1    
    54   27   28 am   BACKBONE|DICT|INTERRES
    55   27   91 1    
    56   28   29 2    
    57   28   30 1    
    58   30   31 1    
    59   30   32 1    
    60   30   92 1    
    61   31   93 1    
    62   31   94 1    
    63   31   95 1    
    64   32   33 am   BACKBONE|DICT|INTERRES
    65   32   96 1    
    66   33   34 2    
    67   33   35 1    
    68   35   36 1    
    69   35   37 1    
    70   35   97 1    
    71   36   98 1    
    72   36   99 1    
    73   36  100 1    
    74   37   38 am   BACKBONE|DICT|INTERRES
    75   37  101 1    
    76   38   39 2    
    77   38   40 1    
    78   40   41 1    
    79   40   42 1    
    80   40  102 1    
    81   41  103 1    
    82   41  104 1    
    83   41  105 1    
    84   42   43 am   BACKBONE|DICT|INTERRES
    85   42  106 1    
    86   43   44 2    
    87   43   45 1    
    88   45   46 1    
    89   45   49 1    
    90   45  107 1    
    91   46   47 1    
    92   46  108 1    
    93   46  109 1    
    94   47   48 1    
    95   48  110 1    
    96   48  111 1    
    97   49   50 am   BACKBONE|DICT|INTERRES
    98   49  112 1    
    99   50   51 2    
   100   50   52 1    
   101   52   53 1    
   102   52   54 1    
   103   52  113 1    
   104   53  114 1    
   105   53  115 1    
   106   53  116 1    
   107   54   55 am   BACKBONE|DICT|INTERRES
   108   54  117 1    
   109   55   56 2    
   110   55   57 1    
   111   57   58 1    
   112   57   59 1    
   113   57  118 1    
   114   58  119 1    
   115   58  120 1    
   116   58  121 1    
   117   59   60 am   BACKBONE|DICT|INTERRES
   118   59  122 1    
   119   60   61 2    
   120   60   62 1    
   121   62   63 1    
   122   62   64 1    
   123   62  123 1    
   124   63  124 1    
   125   63  125 1    
   126   63  126 1    
   127   64   65 am   BACKBONE|DICT|INTERRES
   128   64  127 1    
   129   65   66 2    
@<TRIPOS>SUBSTRUCTURE
     1 UNK         1 GROUP             0       ****    0 ROOT    
