@<TRIPOS>MOLECULE
3R134
127   129    1
SMALL
USER_CHARGES


@<TRIPOS>ATOM
      1 CA         31.5838  -46.8528  -54.3445 C.3       0 UNK        -0.1968 
      2 C          33.0233  -46.4226  -54.5270 C.2       0 UNK         0.4852 
      3 O          33.5591  -46.5494  -55.6297 O.2       0 UNK        -0.5359 
      4 N          33.6469  -45.9384  -53.4442 N.am      1 UNK        -0.4300 
      5 CA         35.0210  -45.4371  -53.3514 C.3       1 UNK         0.0863 
      6 C6         35.2836  -44.1893  -54.2374 C.3       11 UNK        -0.0953 
      7 S7         34.3655  -42.7194  -53.6547 S.3       11 UNK        -0.2369 
      8 C8         32.9043  -42.6498  -54.7586 C.3       11 UNK         0.0226 
      9 C9         31.5946  -43.2140  -54.1926 C.ar      11 UNK        -0.0699 
     10 C10        31.4155  -43.5134  -52.8333 C.ar      11 UNK        -0.0804 
     11 C11        30.1980  -44.0186  -52.3639 C.ar      11 UNK        -0.0871 
     12 C12        29.1404  -44.1999  -53.2570 C.ar      11 UNK        -0.1008 
     13 C13        29.2992  -43.9138  -54.6137 C.ar      11 UNK        -0.0735 
     14 C14        30.5247  -43.4186  -55.0733 C.ar      11 UNK        -0.0945 
     15 C15        28.1508  -44.1811  -55.5746 C.3       11 UNK         0.0169 
     16 S16        27.1814  -42.6821  -55.9056 S.3       11 UNK        -0.2669 
     17 C17        27.8896  -42.1411  -57.4982 C.3       11 UNK        -0.0850 
     18 CA         26.9585  -42.4909  -58.6873 C.3       10 UNK         0.0855 
     19 C          27.4409  -41.7980  -59.9894 C.2       10 UNK         0.5543 
     20 N          27.0065  -40.5699  -60.2354 N.am      10 UNK        -0.7343 
     21 O          28.2329  -42.3457  -60.7543 O.2       10 UNK        -0.5027 
     22 N          26.8173  -43.9451  -58.8784 N.am      10 UNK        -0.4495 
     23 C          25.7548  -44.5194  -59.4559 C.2       10 UNK         0.4903 
     24 O          24.7324  -43.9023  -59.7590 O.2       10 UNK        -0.4860 
     25 CA         25.8263  -46.0221  -59.7878 C.3       9 UNK         0.0227 
     26 CB         25.8394  -46.2259  -61.3132 C.3       9 UNK        -0.1964 
     27 N          26.9758  -46.7306  -59.2142 N.am      9 UNK        -0.4231 
     28 C          27.0186  -47.2435  -57.9778 C.2       9 UNK         0.5014 
     29 O          26.1535  -47.0514  -57.1211 O.2       9 UNK        -0.5270 
     30 CA         28.2479  -48.1136  -57.6527 C.3       8 UNK         0.0284 
     31 CB         29.3593  -47.2842  -56.9998 C.3       8 UNK        -0.1977 
     32 N          27.9234  -49.2402  -56.7756 N.am      8 UNK        -0.4342 
     33 C          27.1602  -50.2837  -57.1278 C.2       8 UNK         0.5039 
     34 O          26.6660  -50.4274  -58.2474 O.2       8 UNK        -0.5547 
     35 CA         26.9238  -51.3627  -56.0622 C.3       7 UNK         0.0281 
     36 CB         28.1021  -52.3507  -56.0301 C.3       7 UNK        -0.1963 
     37 N          26.7309  -50.7840  -54.7306 N.am      7 UNK        -0.4444 
     38 C          25.5374  -50.4514  -54.2176 C.2       7 UNK         0.5104 
     39 O          24.4721  -50.5955  -54.8186 O.2       7 UNK        -0.5100 
     40 CA         25.5069  -49.8951  -52.7804 C.3       6 UNK         0.0396 
     41 CB         25.1039  -51.0013  -51.7917 C.3       6 UNK        -0.1801 
     42 N          26.7839  -49.3197  -52.3539 N.am      6 UNK        -0.4747 
     43 C          27.2225  -48.1016  -52.7024 C.2       6 UNK         0.5012 
     44 O          26.5604  -47.2992  -53.3591 O.2       6 UNK        -0.5003 
     45 CA         28.6520  -47.7184  -52.2666 C.3       5 UNK         0.0782 
     46 C46        28.6200  -46.8399  -50.9912 C.3       11 UNK        -0.0868 
     47 S47        30.2570  -46.1420  -50.5720 S.3       11 UNK        -0.2515 
     48 C48        30.0227  -44.3609  -50.8909 C.3       11 UNK         0.0199 
     49 N          29.5474  -48.8768  -52.1119 N.am      5 UNK        -0.4607 
     50 C          29.8954  -49.7181  -53.0929 C.2       4 UNK         0.5031 
     51 O          29.4398  -49.6573  -54.2383 O.2       4 UNK        -0.5119 
     52 CA         30.8789  -50.8401  -52.7288 C.3       4 UNK         0.0263 
     53 CB         30.1284  -52.1669  -52.5316 C.3       4 UNK        -0.1967 
     54 N          31.8770  -50.9954  -53.7885 N.am      4 UNK        -0.4237 
     55 C          32.9433  -50.1974  -53.9305 C.2       3 UNK         0.4908 
     56 O          33.2731  -49.3562  -53.0910 O.2       3 UNK        -0.5102 
     57 CA         33.7545  -50.3531  -55.2304 C.3       3 UNK         0.0241 
     58 CB         32.8525  -50.2497  -56.4766 C.3       3 UNK        -0.1971 
     59 N          34.7731  -49.3051  -55.3202 N.am      3 UNK        -0.4139 
     60 C          36.0893  -49.4678  -55.1322 C.2       2 UNK         0.5016 
     61 O          36.6243  -50.5561  -54.9159 O.2       2 UNK        -0.5319 
     62 CA         36.9648  -48.2017  -55.2027 C.3       2 UNK         0.0286 
     63 CB         37.5313  -48.0193  -56.6200 C.3       2 UNK        -0.1963 
     64 N          36.2184  -46.9982  -54.8276 N.am      2 UNK        -0.4790 
     65 C          36.0433  -46.5726  -53.5705 C.2       1 UNK         0.5024 
     66 O          36.6255  -47.0581  -52.5996 O.2       1 UNK        -0.4888 
     67 H67        30.9211  -46.1459  -54.8337 H         1 UNK         0.0892 
     68 H68        31.3236  -46.9045  -53.2895 H         1 UNK         0.0892 
     69 H69        31.4231  -47.8330  -54.7860 H         1 UNK         0.0892 
     70 H70        33.1375  -45.9163  -52.5723 H         1 UNK         0.3107 
     71 H71        35.1478  -45.1257  -52.3130 H         1 UNK         0.0773 
     72 H72        36.3428  -43.9276  -54.2066 H         1 UNK         0.0680 
     73 H73        35.0574  -44.3809  -55.2867 H         1 UNK         0.0680 
     74 H74        33.1395  -43.1497  -55.6991 H         1 UNK         0.0650 
     75 H75        32.7317  -41.6023  -55.0086 H         1 UNK         0.0650 
     76 H76        32.2207  -43.3602  -52.1297 H         1 UNK         0.1397 
     77 H77        28.1924  -44.5782  -52.9012 H         1 UNK         0.1363 
     78 H78        30.6496  -43.1968  -56.1239 H         1 UNK         0.1355 
     79 H79        27.4844  -44.9417  -55.1631 H         1 UNK         0.0707 
     80 H80        28.5302  -44.5931  -56.5082 H         1 UNK         0.0707 
     81 H81        28.0308  -41.0604  -57.4323 H         1 UNK         0.1034 
     82 H82        28.8860  -42.5605  -57.6444 H         1 UNK         0.1034 
     83 H83        25.9724  -42.0840  -58.4518 H         1 UNK         0.0482 
     84 H84        26.3627  -40.1088  -59.6110 H         1 UNK         0.3460 
     85 H85        27.3200  -40.0967  -61.0687 H         1 UNK         0.3460 
     86 H86        27.6346  -44.5077  -58.7033 H         1 UNK         0.2989 
     87 H87        24.9119  -46.4766  -59.4002 H         1 UNK         0.0559 
     88 H88        26.7256  -45.7860  -61.7726 H         1 UNK         0.0848 
     89 H89        24.9689  -45.7616  -61.7790 H         1 UNK         0.0848 
     90 H90        25.8139  -47.2842  -61.5740 H         1 UNK         0.0848 
     91 H91        27.7429  -46.9213  -59.8438 H         1 UNK         0.3144 
     92 H92        28.6353  -48.5261  -58.5869 H         1 UNK         0.0727 
     93 H93        29.6269  -46.4222  -57.6117 H         1 UNK         0.0790 
     94 H94        30.2635  -47.8784  -56.8728 H         1 UNK         0.0790 
     95 H95        29.0522  -46.9221  -56.0186 H         1 UNK         0.0790 
     96 H96        28.3195  -49.2247  -55.8413 H         1 UNK         0.3215 
     97 H97        26.0302  -51.9224  -56.3481 H         1 UNK         0.0863 
     98 H98        29.0427  -51.8562  -55.7862 H         1 UNK         0.0808 
     99 H99        28.2317  -52.8299  -57.0015 H         1 UNK         0.0808 
    100 H100       27.9361  -53.1424  -55.2995 H         1 UNK         0.0808 
    101 H101       27.5680  -50.5649  -54.2053 H         1 UNK         0.3118 
    102 H102       24.7418  -49.1164  -52.7450 H         1 UNK         0.0546 
    103 H103       25.8296  -51.8155  -51.7762 H         1 UNK         0.0828 
    104 H104       24.1383  -51.4320  -52.0607 H         1 UNK         0.0828 
    105 H105       25.0109  -50.6133  -50.7772 H         1 UNK         0.0828 
    106 H106       27.3879  -49.9050  -51.7948 H         1 UNK         0.3005 
    107 H107       29.0431  -47.1120  -53.0844 H         1 UNK         0.1257 
    108 H108       28.2767  -47.4274  -50.1376 H         1 UNK         0.0775 
    109 H109       27.8992  -46.0273  -51.0951 H         1 UNK         0.0775 
    110 H110       29.0415  -44.0387  -50.5391 H         1 UNK         0.0840 
    111 H111       30.7476  -43.8064  -50.2929 H         1 UNK         0.0840 
    112 H112       29.9659  -48.9869  -51.1991 H         1 UNK         0.2987 
    113 H113       31.3847  -50.5880  -51.7940 H         1 UNK         0.0785 
    114 H114       29.3897  -52.0845  -51.7332 H         1 UNK         0.0798 
    115 H115       30.8122  -52.9696  -52.2550 H         1 UNK         0.0798 
    116 H116       29.5999  -52.4756  -53.4336 H         1 UNK         0.0798 
    117 H117       31.6474  -51.6398  -54.5306 H         1 UNK         0.3079 
    118 H118       34.2224  -51.3395  -55.2147 H         1 UNK         0.0794 
    119 H119       32.1127  -51.0499  -56.5114 H         1 UNK         0.0786 
    120 H120       33.4400  -50.3240  -57.3920 H         1 UNK         0.0786 
    121 H121       32.3133  -49.3025  -56.5084 H         1 UNK         0.0786 
    122 H122       34.4214  -48.3603  -55.4369 H         1 UNK         0.3032 
    123 H123       37.8021  -48.3399  -54.5144 H         1 UNK         0.1094 
    124 H124       38.1088  -48.8934  -56.9245 H         1 UNK         0.0794 
    125 H125       36.7400  -47.8776  -57.3574 H         1 UNK         0.0794 
    126 H126       38.1974  -47.1578  -56.6723 H         1 UNK         0.0794 
    127 H127       35.6183  -46.5885  -55.5359 H         1 UNK         0.3016 
@<TRIPOS>BOND
     1    1    2 1    
     2    1   67 1    
     3    1   68 1    
     4    1   69 1    
     5    2    3 2    
     6    2    4 am   BACKBONE|DICT|INTERRES
     7    4    5 1    
     8    4   70 1    
     9    5    6 1    
    10    5   65 1    
    11    5   71 1    
    12    6    7 1    
    13    6   72 1    
    14    6   73 1    
    15    7    8 1    
    16    8    9 1    
    17    8   74 1    
    18    8   75 1    
    19    9   10 ar   
    20    9   14 ar   
    21   10   11 ar   
    22   10   76 1    
    23   11   12 ar   
    24   11   48 1    
    25   12   13 ar   
    26   12   77 1    
    27   13   14 ar   
    28   13   15 1    
    29   14   78 1    
    30   15   16 1    
    31   15   79 1    
    32   15   80 1    
    33   16   17 1    
    34   17   18 1    
    35   17   81 1    
    36   17   82 1    
    37   18   19 1    
    38   18   22 1    
    39   18   83 1    
    40   19   20 am   BACKBONE|DICT|INTERRES
    41   19   21 2    
    42   20   84 1    
    43   20   85 1    
    44   22   23 am   BACKBONE|DICT|INTERRES
    45   22   86 1    
    46   23   24 2    
    47   23   25 1    
    48   25   26 1    
    49   25   27 1    
    50   25   87 1    
    51   26   88 1    
    52   26   89 1    
    53   26   90 1    
    54   27   28 am   BACKBONE|DICT|INTERRES
    55   27   91 1    
    56   28   29 2    
    57   28   30 1    
    58   30   31 1    
    59   30   32 1    
    60   30   92 1    
    61   31   93 1    
    62   31   94 1    
    63   31   95 1    
    64   32   33 am   BACKBONE|DICT|INTERRES
    65   32   96 1    
    66   33   34 2    
    67   33   35 1    
    68   35   36 1    
    69   35   37 1    
    70   35   97 1    
    71   36   98 1    
    72   36   99 1    
    73   36  100 1    
    74   37   38 am   BACKBONE|DICT|INTERRES
    75   37  101 1    
    76   38   39 2    
    77   38   40 1    
    78   40   41 1    
    79   40   42 1    
    80   40  102 1    
    81   41  103 1    
    82   41  104 1    
    83   41  105 1    
    84   42   43 am   BACKBONE|DICT|INTERRES
    85   42  106 1    
    86   43   44 2    
    87   43   45 1    
    88   45   46 1    
    89   45   49 1    
    90   45  107 1    
    91   46   47 1    
    92   46  108 1    
    93   46  109 1    
    94   47   48 1    
    95   48  110 1    
    96   48  111 1    
    97   49   50 am   BACKBONE|DICT|INTERRES
    98   49  112 1    
    99   50   51 2    
   100   50   52 1    
   101   52   53 1    
   102   52   54 1    
   103   52  113 1    
   104   53  114 1    
   105   53  115 1    
   106   53  116 1    
   107   54   55 am   BACKBONE|DICT|INTERRES
   108   54  117 1    
   109   55   56 2    
   110   55   57 1    
   111   57   58 1    
   112   57   59 1    
   113   57  118 1    
   114   58  119 1    
   115   58  120 1    
   116   58  121 1    
   117   59   60 am   BACKBONE|DICT|INTERRES
   118   59  122 1    
   119   60   61 2    
   120   60   62 1    
   121   62   63 1    
   122   62   64 1    
   123   62  123 1    
   124   63  124 1    
   125   63  125 1    
   126   63  126 1    
   127   64   65 am   BACKBONE|DICT|INTERRES
   128   64  127 1    
   129   65   66 2    
@<TRIPOS>SUBSTRUCTURE
     1 UNK         1 GROUP             0       ****    0 ROOT    
