@<TRIPOS>MOLECULE
3R134
127   129    1
SMALL
USER_CHARGES


@<TRIPOS>ATOM
      1 CA         35.9178  -47.7804  -55.3861 C.3       0 UNK        -0.1968 
      2 C          35.1192  -47.3425  -54.1684 C.2       0 UNK         0.4852 
      3 O          35.3289  -47.8757  -53.0777 O.2       0 UNK        -0.5359 
      4 N          34.1936  -46.3886  -54.3489 N.am      1 UNK        -0.4300 
      5 CA         33.3123  -45.8343  -53.3152 C.3       1 UNK         0.0863 
      6 C6         34.0855  -44.9432  -52.3029 C.3       11 UNK        -0.0953 
      7 S7         33.0112  -43.7167  -51.4835 S.3       11 UNK        -0.2369 
      8 C8         33.2807  -42.2292  -52.5051 C.3       11 UNK         0.0226 
      9 C9         32.5164  -42.2996  -53.8201 C.ar      11 UNK        -0.0699 
     10 C10        33.1269  -42.8188  -54.9681 C.ar      11 UNK        -0.0804 
     11 C11        32.4039  -42.9382  -56.1586 C.ar      11 UNK        -0.0871 
     12 C12        31.0927  -42.4612  -56.2169 C.ar      11 UNK        -0.1008 
     13 C13        30.4677  -41.9563  -55.0771 C.ar      11 UNK        -0.0735 
     14 C14        31.1842  -41.8727  -53.8795 C.ar      11 UNK        -0.0945 
     15 C15        29.0068  -41.5458  -55.1539 C.3       11 UNK         0.0169 
     16 S16        27.9169  -43.0092  -55.0862 S.3       11 UNK        -0.2669 
     17 C17        26.6130  -42.5648  -56.2924 C.3       11 UNK        -0.0850 
     18 CA         26.5076  -43.5310  -57.5062 C.3       10 UNK         0.0855 
     19 C          27.7754  -43.5619  -58.4056 C.2       10 UNK         0.5543 
     20 N          28.2762  -44.7236  -58.8074 N.am      10 UNK        -0.7343 
     21 O          28.2941  -42.5116  -58.7752 O.2       10 UNK        -0.5027 
     22 N          26.0057  -44.8592  -57.1148 N.am      10 UNK        -0.4495 
     23 C          24.7130  -45.2064  -57.0930 C.2       10 UNK         0.4903 
     24 O          23.7977  -44.4499  -57.4242 O.2       10 UNK        -0.4860 
     25 CA         24.3846  -46.6266  -56.5945 C.3       9 UNK         0.0227 
     26 CB         22.9071  -47.0215  -56.8059 C.3       9 UNK        -0.1964 
     27 N          25.2822  -47.6547  -57.1290 N.am      9 UNK        -0.4231 
     28 C          25.4440  -48.0455  -58.4028 C.2       9 UNK         0.5014 
     29 O          24.8292  -47.5604  -59.3533 O.2       9 UNK        -0.5270 
     30 CA         26.4663  -49.1731  -58.6745 C.3       8 UNK         0.0284 
     31 CB         27.6440  -48.6571  -59.5187 C.3       8 UNK        -0.1977 
     32 N          26.9922  -49.7977  -57.4553 N.am      8 UNK        -0.4342 
     33 C          26.3157  -50.6518  -56.6737 C.2       8 UNK         0.5039 
     34 O          25.2117  -51.1159  -56.9589 O.2       8 UNK        -0.5547 
     35 CA         26.9520  -50.9918  -55.3153 C.3       7 UNK         0.0281 
     36 CB         27.8891  -52.2056  -55.4273 C.3       7 UNK        -0.1963 
     37 N          27.6750  -49.8446  -54.7549 N.am      7 UNK        -0.4444 
     38 C          27.0778  -48.7681  -54.2212 C.2       7 UNK         0.5104 
     39 O          25.8598  -48.6632  -54.0853 O.2       7 UNK        -0.5100 
     40 CA         27.9776  -47.5907  -53.8095 C.3       6 UNK         0.0396 
     41 CB         28.4405  -47.7557  -52.3555 C.3       6 UNK        -0.1801 
     42 N          29.1465  -47.4319  -54.6747 N.am      6 UNK        -0.4747 
     43 C          29.1075  -47.0576  -55.9608 C.2       6 UNK         0.5012 
     44 O          28.0713  -46.7664  -56.5573 O.2       6 UNK        -0.5003 
     45 CA         30.4517  -47.0401  -56.7177 C.3       5 UNK         0.0782 
     46 C46        31.0955  -45.6445  -56.5724 C.3       11 UNK        -0.0868 
     47 S47        32.7960  -45.4802  -57.2267 S.3       11 UNK        -0.2515 
     48 C48        32.9890  -43.6638  -57.3629 C.3       11 UNK         0.0199 
     49 N          31.3478  -48.1352  -56.3244 N.am      5 UNK        -0.4607 
     50 C          31.0537  -49.4365  -56.4321 C.2       4 UNK         0.5031 
     51 O          29.9525  -49.8576  -56.7875 O.2       4 UNK        -0.5119 
     52 CA         32.1708  -50.4290  -56.1037 C.3       4 UNK         0.0263 
     53 CB         33.3606  -50.2655  -57.0712 C.3       4 UNK        -0.1967 
     54 N          32.6145  -50.3378  -54.7066 N.am      4 UNK        -0.4237 
     55 C          33.1946  -51.3663  -54.0640 C.2       3 UNK         0.4908 
     56 O          33.3496  -52.4756  -54.5781 O.2       3 UNK        -0.5102 
     57 CA         33.7245  -51.1659  -52.6315 C.3       3 UNK         0.0241 
     58 CB         35.2605  -51.2586  -52.6128 C.3       3 UNK        -0.1971 
     59 N          33.3193  -49.9042  -52.0125 N.am      3 UNK        -0.4139 
     60 C          32.1927  -49.7369  -51.3038 C.2       2 UNK         0.5016 
     61 O          31.3666  -50.6301  -51.1146 O.2       2 UNK        -0.5319 
     62 CA         31.9281  -48.3397  -50.7042 C.3       2 UNK         0.0286 
     63 CB         32.3419  -48.3067  -49.2244 C.3       2 UNK        -0.1963 
     64 N          32.5899  -47.2360  -51.4078 N.am      2 UNK        -0.4790 
     65 C          32.4401  -46.9514  -52.7074 C.2       1 UNK         0.5024 
     66 O          31.6899  -47.5853  -53.4515 O.2       1 UNK        -0.4888 
     67 H67        36.9638  -47.5001  -55.2659 H         1 UNK         0.0892 
     68 H68        35.8674  -48.8632  -55.4977 H         1 UNK         0.0892 
     69 H69        35.5465  -47.3251  -56.3043 H         1 UNK         0.0892 
     70 H70        34.0488  -46.0113  -55.2770 H         1 UNK         0.3107 
     71 H71        32.6096  -45.1971  -53.8470 H         1 UNK         0.0773 
     72 H72        34.8754  -44.3988  -52.8221 H         1 UNK         0.0680 
     73 H73        34.6076  -45.5357  -51.5502 H         1 UNK         0.0680 
     74 H74        34.3472  -42.0862  -52.6851 H         1 UNK         0.0650 
     75 H75        32.9519  -41.3560  -51.9396 H         1 UNK         0.0650 
     76 H76        34.1443  -43.1817  -54.9200 H         1 UNK         0.1397 
     77 H77        30.5275  -42.5487  -57.1352 H         1 UNK         0.1363 
     78 H78        30.7012  -41.4932  -52.9893 H         1 UNK         0.1355 
     79 H79        28.8517  -40.9902  -56.0797 H         1 UNK         0.0707 
     80 H80        28.7498  -40.8668  -54.3395 H         1 UNK         0.0707 
     81 H81        26.7565  -41.5433  -56.6469 H         1 UNK         0.1034 
     82 H82        25.6603  -42.5441  -55.7615 H         1 UNK         0.1034 
     83 H83        25.7643  -43.0925  -58.1746 H         1 UNK         0.0482 
     84 H84        27.8706  -45.5897  -58.4901 H         1 UNK         0.3460 
     85 H85        29.0761  -44.7267  -59.4190 H         1 UNK         0.3460 
     86 H86        26.7112  -45.5341  -56.8276 H         1 UNK         0.2989 
     87 H87        24.5626  -46.6091  -55.5184 H         1 UNK         0.0559 
     88 H88        22.6315  -47.0127  -57.8609 H         1 UNK         0.0848 
     89 H89        22.2397  -46.3296  -56.2907 H         1 UNK         0.0848 
     90 H90        22.7036  -48.0179  -56.4138 H         1 UNK         0.0848 
     91 H91        25.8715  -48.1010  -56.4401 H         1 UNK         0.3144 
     92 H92        25.9481  -49.9406  -59.2532 H         1 UNK         0.0727 
     93 H93        28.3429  -49.4592  -59.7569 H         1 UNK         0.0790 
     94 H94        28.1980  -47.8728  -59.0053 H         1 UNK         0.0790 
     95 H95        27.2945  -48.2415  -60.4649 H         1 UNK         0.0790 
     96 H96        27.9295  -49.5320  -57.1703 H         1 UNK         0.3215 
     97 H97        26.1444  -51.2547  -54.6281 H         1 UNK         0.0863 
     98 H98        27.3420  -53.0840  -55.7720 H         1 UNK         0.0808 
     99 H99        28.3301  -52.4575  -54.4628 H         1 UNK         0.0808 
    100 H100       28.7012  -52.0354  -56.1339 H         1 UNK         0.0808 
    101 H101       28.6769  -49.8254  -54.8908 H         1 UNK         0.3118 
    102 H102       27.3844  -46.6761  -53.8785 H         1 UNK         0.0546 
    103 H103       29.0351  -48.6609  -52.2264 H         1 UNK         0.0828 
    104 H104       27.5874  -47.8257  -51.6794 H         1 UNK         0.0828 
    105 H105       29.0417  -46.9056  -52.0324 H         1 UNK         0.0828 
    106 H106       30.0581  -47.6116  -54.2574 H         1 UNK         0.3005 
    107 H107       30.2238  -47.1925  -57.7745 H         1 UNK         0.1257 
    108 H108       30.4645  -44.9212  -57.0888 H         1 UNK         0.0775 
    109 H109       31.1088  -45.3398  -55.5252 H         1 UNK         0.0775 
    110 H110       34.0473  -43.4209  -57.4692 H         1 UNK         0.0840 
    111 H111       32.5051  -43.3243  -58.2801 H         1 UNK         0.0840 
    112 H112       32.2665  -47.8593  -56.0156 H         1 UNK         0.2987 
    113 H113       31.7432  -51.4212  -56.2671 H         1 UNK         0.0785 
    114 H114       34.0995  -51.0546  -56.9318 H         1 UNK         0.0798 
    115 H115       33.8659  -49.3092  -56.9401 H         1 UNK         0.0798 
    116 H116       33.0288  -50.3184  -58.1092 H         1 UNK         0.0798 
    117 H117       32.4368  -49.4689  -54.2148 H         1 UNK         0.3079 
    118 H118       33.3394  -51.9939  -52.0323 H         1 UNK         0.0794 
    119 H119       35.5981  -52.2301  -52.9764 H         1 UNK         0.0786 
    120 H120       35.6543  -51.1384  -51.6035 H         1 UNK         0.0786 
    121 H121       35.7208  -50.4996  -53.2456 H         1 UNK         0.0786 
    122 H122       33.9434  -49.1135  -52.1449 H         1 UNK         0.3032 
    123 H123       30.8528  -48.1658  -50.7580 H         1 UNK         0.1094 
    124 H124       33.4169  -48.4464  -49.1030 H         1 UNK         0.0794 
    125 H125       32.0697  -47.3605  -48.7561 H         1 UNK         0.0794 
    126 H126       31.8448  -49.0983  -48.6617 H         1 UNK         0.0794 
    127 H127       33.2355  -46.6760  -50.8693 H         1 UNK         0.3016 
@<TRIPOS>BOND
     1    1    2 1    
     2    1   67 1    
     3    1   68 1    
     4    1   69 1    
     5    2    3 2    
     6    2    4 am   BACKBONE|DICT|INTERRES
     7    4    5 1    
     8    4   70 1    
     9    5    6 1    
    10    5   65 1    
    11    5   71 1    
    12    6    7 1    
    13    6   72 1    
    14    6   73 1    
    15    7    8 1    
    16    8    9 1    
    17    8   74 1    
    18    8   75 1    
    19    9   10 ar   
    20    9   14 ar   
    21   10   11 ar   
    22   10   76 1    
    23   11   12 ar   
    24   11   48 1    
    25   12   13 ar   
    26   12   77 1    
    27   13   14 ar   
    28   13   15 1    
    29   14   78 1    
    30   15   16 1    
    31   15   79 1    
    32   15   80 1    
    33   16   17 1    
    34   17   18 1    
    35   17   81 1    
    36   17   82 1    
    37   18   19 1    
    38   18   22 1    
    39   18   83 1    
    40   19   20 am   BACKBONE|DICT|INTERRES
    41   19   21 2    
    42   20   84 1    
    43   20   85 1    
    44   22   23 am   BACKBONE|DICT|INTERRES
    45   22   86 1    
    46   23   24 2    
    47   23   25 1    
    48   25   26 1    
    49   25   27 1    
    50   25   87 1    
    51   26   88 1    
    52   26   89 1    
    53   26   90 1    
    54   27   28 am   BACKBONE|DICT|INTERRES
    55   27   91 1    
    56   28   29 2    
    57   28   30 1    
    58   30   31 1    
    59   30   32 1    
    60   30   92 1    
    61   31   93 1    
    62   31   94 1    
    63   31   95 1    
    64   32   33 am   BACKBONE|DICT|INTERRES
    65   32   96 1    
    66   33   34 2    
    67   33   35 1    
    68   35   36 1    
    69   35   37 1    
    70   35   97 1    
    71   36   98 1    
    72   36   99 1    
    73   36  100 1    
    74   37   38 am   BACKBONE|DICT|INTERRES
    75   37  101 1    
    76   38   39 2    
    77   38   40 1    
    78   40   41 1    
    79   40   42 1    
    80   40  102 1    
    81   41  103 1    
    82   41  104 1    
    83   41  105 1    
    84   42   43 am   BACKBONE|DICT|INTERRES
    85   42  106 1    
    86   43   44 2    
    87   43   45 1    
    88   45   46 1    
    89   45   49 1    
    90   45  107 1    
    91   46   47 1    
    92   46  108 1    
    93   46  109 1    
    94   47   48 1    
    95   48  110 1    
    96   48  111 1    
    97   49   50 am   BACKBONE|DICT|INTERRES
    98   49  112 1    
    99   50   51 2    
   100   50   52 1    
   101   52   53 1    
   102   52   54 1    
   103   52  113 1    
   104   53  114 1    
   105   53  115 1    
   106   53  116 1    
   107   54   55 am   BACKBONE|DICT|INTERRES
   108   54  117 1    
   109   55   56 2    
   110   55   57 1    
   111   57   58 1    
   112   57   59 1    
   113   57  118 1    
   114   58  119 1    
   115   58  120 1    
   116   58  121 1    
   117   59   60 am   BACKBONE|DICT|INTERRES
   118   59  122 1    
   119   60   61 2    
   120   60   62 1    
   121   62   63 1    
   122   62   64 1    
   123   62  123 1    
   124   63  124 1    
   125   63  125 1    
   126   63  126 1    
   127   64   65 am   BACKBONE|DICT|INTERRES
   128   64  127 1    
   129   65   66 2    
@<TRIPOS>SUBSTRUCTURE
     1 UNK         1 GROUP             0       ****    0 ROOT    
