@<TRIPOS>MOLECULE
3R134
127   129    1
SMALL
USER_CHARGES


@<TRIPOS>ATOM
      1 CA         31.7083  -49.6439  -57.4545 C.3       0 UNK        -0.1968 
      2 C          32.6730  -48.5847  -56.9477 C.2       0 UNK         0.4852 
      3 O          33.7563  -48.4295  -57.5123 O.2       0 UNK        -0.5359 
      4 N          32.2924  -47.8719  -55.8771 N.am      1 UNK        -0.4300 
      5 CA         33.0275  -46.7964  -55.2014 C.3       1 UNK         0.0863 
      6 C6         33.4286  -45.6310  -56.1466 C.3       11 UNK        -0.0953 
      7 S7         34.0237  -44.1530  -55.2598 S.3       11 UNK        -0.2369 
      8 C8         32.7052  -42.9435  -55.5986 C.3       11 UNK         0.0226 
      9 C9         31.4349  -43.2122  -54.8020 C.ar      11 UNK        -0.0699 
     10 C10        31.4722  -43.2219  -53.4037 C.ar      11 UNK        -0.0804 
     11 C11        30.3035  -43.4137  -52.6626 C.ar      11 UNK        -0.0871 
     12 C12        29.0861  -43.5705  -53.3309 C.ar      11 UNK        -0.1008 
     13 C13        29.0349  -43.5785  -54.7264 C.ar      11 UNK        -0.0735 
     14 C14        30.2146  -43.4061  -55.4586 C.ar      11 UNK        -0.0945 
     15 C15        27.7009  -43.7985  -55.4252 C.3       11 UNK         0.0169 
     16 S16        26.7873  -42.2476  -55.6691 S.3       11 UNK        -0.2669 
     17 C17        27.4687  -41.6633  -57.2584 C.3       11 UNK        -0.0850 
     18 CA         26.5292  -41.9856  -58.4520 C.3       10 UNK         0.0855 
     19 C          26.9357  -41.1896  -59.7275 C.2       10 UNK         0.5543 
     20 N          27.1793  -41.8282  -60.8659 N.am      10 UNK        -0.7343 
     21 O          27.0191  -39.9645  -59.6871 O.2       10 UNK        -0.5027 
     22 N          26.3970  -43.4394  -58.6773 N.am      10 UNK        -0.4495 
     23 C          25.2697  -44.0462  -59.0722 C.2       10 UNK         0.4903 
     24 O          24.1953  -43.4608  -59.2136 O.2       10 UNK        -0.4860 
     25 CA         25.3346  -45.5505  -59.4007 C.3       9 UNK         0.0227 
     26 CB         25.1152  -45.7745  -60.9075 C.3       9 UNK        -0.1964 
     27 N          26.5890  -46.2040  -59.0088 N.am      9 UNK        -0.4231 
     28 C          26.8232  -46.7481  -57.8075 C.2       9 UNK         0.5014 
     29 O          26.0390  -46.6852  -56.8587 O.2       9 UNK        -0.5270 
     30 CA         28.1691  -47.4731  -57.6507 C.3       8 UNK         0.0284 
     31 CB         29.2924  -46.4947  -57.2710 C.3       8 UNK        -0.1977 
     32 N          28.0734  -48.5168  -56.6286 N.am      8 UNK        -0.4342 
     33 C          27.8999  -49.8205  -56.8905 C.2       8 UNK         0.5039 
     34 O          27.8680  -50.2842  -58.0314 O.2       8 UNK        -0.5547 
     35 CA         27.7479  -50.7897  -55.7022 C.3       7 UNK         0.0281 
     36 CB         28.9844  -51.6945  -55.5540 C.3       7 UNK        -0.1963 
     37 N          27.4993  -50.1102  -54.4310 N.am      7 UNK        -0.4444 
     38 C          26.2922  -49.7089  -54.0102 C.2       7 UNK         0.5104 
     39 O          25.2496  -49.9125  -54.6328 O.2       7 UNK        -0.5100 
     40 CA         26.2256  -48.9625  -52.6633 C.3       6 UNK         0.0396 
     41 CB         25.6806  -49.8908  -51.5658 C.3       6 UNK        -0.1801 
     42 N          27.5036  -48.3974  -52.2159 N.am      6 UNK        -0.4747 
     43 C          28.1688  -47.4108  -52.8350 C.2       6 UNK         0.5012 
     44 O          27.8041  -46.9012  -53.8927 O.2       6 UNK        -0.5003 
     45 CA         29.4989  -46.9727  -52.1928 C.3       5 UNK         0.0782 
     46 C46        29.2417  -46.0398  -50.9838 C.3       11 UNK        -0.0868 
     47 S47        30.7431  -45.1170  -50.5159 S.3       11 UNK        -0.2515 
     48 C48        30.3572  -43.4481  -51.1418 C.3       11 UNK         0.0199 
     49 N          30.3219  -48.1295  -51.8182 N.am      5 UNK        -0.4607 
     50 C          30.7923  -49.0405  -52.6762 C.2       4 UNK         0.5031 
     51 O          30.6252  -48.9874  -53.8985 O.2       4 UNK        -0.5119 
     52 CA         31.5132  -50.2447  -52.0675 C.3       4 UNK         0.0263 
     53 CB         30.4898  -51.3435  -51.7153 C.3       4 UNK        -0.1967 
     54 N          32.4823  -50.7263  -53.0452 N.am      4 UNK        -0.4237 
     55 C          33.4331  -51.6459  -52.8423 C.2       3 UNK         0.4908 
     56 O          33.6024  -52.2478  -51.7815 O.2       3 UNK        -0.5102 
     57 CA         34.3718  -51.9170  -54.0285 C.3       3 UNK         0.0241 
     58 CB         33.6299  -52.6318  -55.1716 C.3       3 UNK        -0.1971 
     59 N          34.9756  -50.6782  -54.5235 N.am      3 UNK        -0.4139 
     60 C          35.9368  -49.9935  -53.8851 C.2       2 UNK         0.5016 
     61 O          36.4904  -50.3786  -52.8548 O.2       2 UNK        -0.5319 
     62 CA         36.3378  -48.6395  -54.4942 C.3       2 UNK         0.0286 
     63 CB         37.4319  -48.8224  -55.5581 C.3       2 UNK        -0.1963 
     64 N          35.1962  -47.9382  -55.0852 N.am      2 UNK        -0.4790 
     65 C          34.2044  -47.3688  -54.3874 C.2       1 UNK         0.5024 
     66 O          34.1718  -47.3253  -53.1574 O.2       1 UNK        -0.4888 
     67 H67        30.8409  -49.7363  -56.8052 H         1 UNK         0.0892 
     68 H68        31.3554  -49.3820  -58.4516 H         1 UNK         0.0892 
     69 H69        32.2005  -50.6139  -57.5111 H         1 UNK         0.0892 
     70 H70        31.4377  -48.1423  -55.3953 H         1 UNK         0.3107 
     71 H71        32.3200  -46.3889  -54.4763 H         1 UNK         0.0773 
     72 H72        34.2083  -45.9365  -56.8454 H         1 UNK         0.0680 
     73 H73        32.5724  -45.3527  -56.7628 H         1 UNK         0.0680 
     74 H74        32.5036  -42.9198  -56.6706 H         1 UNK         0.0650 
     75 H75        33.0729  -41.9505  -55.3369 H         1 UNK         0.0650 
     76 H76        32.4150  -43.0816  -52.8924 H         1 UNK         0.1397 
     77 H77        28.1721  -43.7005  -52.7686 H         1 UNK         0.1363 
     78 H78        30.1826  -43.4102  -56.5387 H         1 UNK         0.1355 
     79 H79        27.0828  -44.4766  -54.8351 H         1 UNK         0.0707 
     80 H80        27.8435  -44.2877  -56.3858 H         1 UNK         0.0707 
     81 H81        27.6067  -40.5847  -57.1594 H         1 UNK         0.1034 
     82 H82        28.4646  -42.0731  -57.4260 H         1 UNK         0.1034 
     83 H83        25.5466  -41.5909  -58.1859 H         1 UNK         0.0482 
     84 H84        27.1006  -42.8302  -60.9190 H         1 UNK         0.3460 
     85 H85        27.4354  -41.2975  -61.6838 H         1 UNK         0.3460 
     86 H86        27.2402  -43.9861  -58.6042 H         1 UNK         0.2989 
     87 H87        24.5071  -46.0277  -58.8710 H         1 UNK         0.0559 
     88 H88        24.1687  -45.3418  -61.2352 H         1 UNK         0.0848 
     89 H89        25.0804  -46.8368  -61.1500 H         1 UNK         0.0848 
     90 H90        25.9046  -45.3186  -61.5061 H         1 UNK         0.0848 
     91 H91        27.2907  -46.3000  -59.7298 H         1 UNK         0.3144 
     92 H92        28.4252  -47.9140  -58.6166 H         1 UNK         0.0727 
     93 H93        29.2373  -46.1970  -56.2236 H         1 UNK         0.0790 
     94 H94        29.2647  -45.5909  -57.8803 H         1 UNK         0.0790 
     95 H95        30.2674  -46.9465  -57.4355 H         1 UNK         0.0790 
     96 H96        27.9831  -48.1888  -55.6732 H         1 UNK         0.3215 
     97 H97        26.8960  -51.4336  -55.9322 H         1 UNK         0.0863 
     98 H98        29.8636  -51.1399  -55.2298 H         1 UNK         0.0808 
     99 H99        29.2334  -52.1798  -56.4988 H         1 UNK         0.0808 
    100 H100       28.8058  -52.4855  -54.8256 H         1 UNK         0.0808 
    101 H101       28.3083  -49.8718  -53.8747 H         1 UNK         0.3118 
    102 H102       25.5242  -48.1350  -52.7896 H         1 UNK         0.0546 
    103 H103       26.3501  -50.7312  -51.3781 H         1 UNK         0.0828 
    104 H104       24.7116  -50.3045  -51.8493 H         1 UNK         0.0828 
    105 H105       25.5379  -49.3565  -50.6265 H         1 UNK         0.0828 
    106 H106       27.8901  -48.7735  -51.3619 H         1 UNK         0.3005 
    107 H107       30.0408  -46.4122  -52.9589 H         1 UNK         0.1257 
    108 H108       28.9068  -46.6143  -50.1183 H         1 UNK         0.0775 
    109 H109       28.4376  -45.3312  -51.1859 H         1 UNK         0.0775 
    110 H110       29.4136  -43.1039  -50.7153 H         1 UNK         0.0840 
    111 H111       31.1194  -42.7538  -50.7847 H         1 UNK         0.0840 
    112 H112       30.5181  -48.2338  -50.8331 H         1 UNK         0.2987 
    113 H113       32.0478  -49.9273  -51.1699 H         1 UNK         0.0785 
    114 H114       29.7297  -50.9695  -51.0284 H         1 UNK         0.0798 
    115 H115       30.9645  -52.1948  -51.2279 H         1 UNK         0.0798 
    116 H116       29.9751  -51.7138  -52.6024 H         1 UNK         0.0798 
    117 H117       32.4100  -50.2694  -53.9437 H         1 UNK         0.3079 
    118 H118       35.1716  -52.5753  -53.6815 H         1 UNK         0.0794 
    119 H119       34.3058  -52.8728  -55.9924 H         1 UNK         0.0786 
    120 H120       32.8149  -52.0303  -55.5744 H         1 UNK         0.0786 
    121 H121       33.1975  -53.5713  -54.8245 H         1 UNK         0.0786 
    122 H122       34.6059  -50.2890  -55.3778 H         1 UNK         0.3032 
    123 H123       36.7410  -48.0217  -53.6882 H         1 UNK         0.1094 
    124 H124       37.0809  -49.4156  -56.4035 H         1 UNK         0.0794 
    125 H125       37.7747  -47.8614  -55.9421 H         1 UNK         0.0794 
    126 H126       38.3012  -49.3317  -55.1397 H         1 UNK         0.0794 
    127 H127       35.0876  -47.9801  -56.0949 H         1 UNK         0.3016 
@<TRIPOS>BOND
     1    1    2 1    
     2    1   67 1    
     3    1   68 1    
     4    1   69 1    
     5    2    3 2    
     6    2    4 am   BACKBONE|DICT|INTERRES
     7    4    5 1    
     8    4   70 1    
     9    5    6 1    
    10    5   65 1    
    11    5   71 1    
    12    6    7 1    
    13    6   72 1    
    14    6   73 1    
    15    7    8 1    
    16    8    9 1    
    17    8   74 1    
    18    8   75 1    
    19    9   10 ar   
    20    9   14 ar   
    21   10   11 ar   
    22   10   76 1    
    23   11   12 ar   
    24   11   48 1    
    25   12   13 ar   
    26   12   77 1    
    27   13   14 ar   
    28   13   15 1    
    29   14   78 1    
    30   15   16 1    
    31   15   79 1    
    32   15   80 1    
    33   16   17 1    
    34   17   18 1    
    35   17   81 1    
    36   17   82 1    
    37   18   19 1    
    38   18   22 1    
    39   18   83 1    
    40   19   20 am   BACKBONE|DICT|INTERRES
    41   19   21 2    
    42   20   84 1    
    43   20   85 1    
    44   22   23 am   BACKBONE|DICT|INTERRES
    45   22   86 1    
    46   23   24 2    
    47   23   25 1    
    48   25   26 1    
    49   25   27 1    
    50   25   87 1    
    51   26   88 1    
    52   26   89 1    
    53   26   90 1    
    54   27   28 am   BACKBONE|DICT|INTERRES
    55   27   91 1    
    56   28   29 2    
    57   28   30 1    
    58   30   31 1    
    59   30   32 1    
    60   30   92 1    
    61   31   93 1    
    62   31   94 1    
    63   31   95 1    
    64   32   33 am   BACKBONE|DICT|INTERRES
    65   32   96 1    
    66   33   34 2    
    67   33   35 1    
    68   35   36 1    
    69   35   37 1    
    70   35   97 1    
    71   36   98 1    
    72   36   99 1    
    73   36  100 1    
    74   37   38 am   BACKBONE|DICT|INTERRES
    75   37  101 1    
    76   38   39 2    
    77   38   40 1    
    78   40   41 1    
    79   40   42 1    
    80   40  102 1    
    81   41  103 1    
    82   41  104 1    
    83   41  105 1    
    84   42   43 am   BACKBONE|DICT|INTERRES
    85   42  106 1    
    86   43   44 2    
    87   43   45 1    
    88   45   46 1    
    89   45   49 1    
    90   45  107 1    
    91   46   47 1    
    92   46  108 1    
    93   46  109 1    
    94   47   48 1    
    95   48  110 1    
    96   48  111 1    
    97   49   50 am   BACKBONE|DICT|INTERRES
    98   49  112 1    
    99   50   51 2    
   100   50   52 1    
   101   52   53 1    
   102   52   54 1    
   103   52  113 1    
   104   53  114 1    
   105   53  115 1    
   106   53  116 1    
   107   54   55 am   BACKBONE|DICT|INTERRES
   108   54  117 1    
   109   55   56 2    
   110   55   57 1    
   111   57   58 1    
   112   57   59 1    
   113   57  118 1    
   114   58  119 1    
   115   58  120 1    
   116   58  121 1    
   117   59   60 am   BACKBONE|DICT|INTERRES
   118   59  122 1    
   119   60   61 2    
   120   60   62 1    
   121   62   63 1    
   122   62   64 1    
   123   62  123 1    
   124   63  124 1    
   125   63  125 1    
   126   63  126 1    
   127   64   65 am   BACKBONE|DICT|INTERRES
   128   64  127 1    
   129   65   66 2    
@<TRIPOS>SUBSTRUCTURE
     1 UNK         1 GROUP             0       ****    0 ROOT    
