@<TRIPOS>MOLECULE
3R134
127   129    1
SMALL
USER_CHARGES


@<TRIPOS>ATOM
      1 CA         36.0890  -46.8529  -54.6653 C.3       0 UNK        -0.1968 
      2 C          34.6381  -46.6004  -54.2877 C.2       0 UNK         0.4852 
      3 O          33.7556  -47.3161  -54.7582 O.2       0 UNK        -0.5359 
      4 N          34.3822  -45.5887  -53.4449 N.am      1 UNK        -0.4300 
      5 CA         33.0431  -45.2142  -52.9673 C.3       1 UNK         0.0863 
      6 C6         33.0626  -43.8502  -52.2293 C.3       11 UNK        -0.0953 
      7 S7         31.5018  -42.9189  -52.4139 S.3       11 UNK        -0.2369 
      8 C8         31.9497  -41.6187  -53.6139 C.3       11 UNK         0.0226 
      9 C9         31.7784  -42.0799  -55.0559 C.ar      11 UNK        -0.0699 
     10 C10        32.7170  -42.9344  -55.6400 C.ar      11 UNK        -0.0804 
     11 C11        32.5509  -43.3846  -56.9524 C.ar      11 UNK        -0.0871 
     12 C12        31.4649  -42.9252  -57.7039 C.ar      11 UNK        -0.1008 
     13 C13        30.5174  -42.0713  -57.1341 C.ar      11 UNK        -0.0735 
     14 C14        30.6806  -41.6504  -55.8095 C.ar      11 UNK        -0.0945 
     15 C15        29.3202  -41.6143  -57.9566 C.3       11 UNK         0.0169 
     16 S16        27.9803  -42.8531  -57.9684 S.3       11 UNK        -0.2669 
     17 C17        27.3177  -42.6915  -56.2759 C.3       11 UNK        -0.0850 
     18 CA         27.4987  -43.9941  -55.4391 C.3       10 UNK         0.0855 
     19 C          27.4375  -43.7426  -53.8989 C.2       10 UNK         0.5543 
     20 N          26.9959  -44.7008  -53.0923 N.am      10 UNK        -0.7343 
     21 O          27.8118  -42.6755  -53.4194 O.2       10 UNK        -0.5027 
     22 N          26.6433  -45.1076  -55.9020 N.am      10 UNK        -0.4495 
     23 C          25.3014  -45.1358  -55.8666 C.2       10 UNK         0.4903 
     24 O          24.6108  -44.1738  -55.5270 O.2       10 UNK        -0.4860 
     25 CA         24.5993  -46.4700  -56.1927 C.3       9 UNK         0.0227 
     26 CB         23.1810  -46.2790  -56.7740 C.3       9 UNK        -0.1964 
     27 N          25.3936  -47.4019  -57.0003 N.am      9 UNK        -0.4231 
     28 C          25.7266  -47.2973  -58.2972 C.2       9 UNK         0.5014 
     29 O          25.3915  -46.3539  -59.0146 O.2       9 UNK        -0.5270 
     30 CA         26.5715  -48.4348  -58.9110 C.3       8 UNK         0.0284 
     31 CB         27.7740  -47.8760  -59.6947 C.3       8 UNK        -0.1977 
     32 N          27.0605  -49.3761  -57.8992 N.am      8 UNK        -0.4342 
     33 C          26.4783  -50.5348  -57.5597 C.2       8 UNK         0.5039 
     34 O          25.4878  -50.9930  -58.1295 O.2       8 UNK        -0.5547 
     35 CA         27.0790  -51.3051  -56.3645 C.3       7 UNK         0.0281 
     36 CB         27.9708  -52.4549  -56.8587 C.3       7 UNK        -0.1963 
     37 N          27.8489  -50.4640  -55.4411 N.am      7 UNK        -0.4444 
     38 C          27.3359  -49.4657  -54.7060 C.2       7 UNK         0.5104 
     39 O          26.1382  -49.1858  -54.6748 O.2       7 UNK        -0.5100 
     40 CA         28.3397  -48.5621  -53.9687 C.3       6 UNK         0.0396 
     41 CB         28.6999  -49.1521  -52.5987 C.3       6 UNK        -0.1801 
     42 N          29.5488  -48.3118  -54.7650 N.am      6 UNK        -0.4747 
     43 C          29.5397  -47.6740  -55.9470 C.2       6 UNK         0.5012 
     44 O          28.5202  -47.1806  -56.4261 O.2       6 UNK        -0.5003 
     45 CA         30.8389  -47.6098  -56.7701 C.3       5 UNK         0.0782 
     46 C46        31.3994  -46.1751  -56.7940 C.3       11 UNK        -0.0868 
     47 S47        32.6811  -45.9472  -58.0744 S.3       11 UNK        -0.2515 
     48 C48        33.5153  -44.4129  -57.5325 C.3       11 UNK         0.0199 
     49 N          31.8204  -48.5983  -56.3185 N.am      5 UNK        -0.4607 
     50 C          31.7813  -49.8857  -56.6788 C.2       4 UNK         0.5031 
     51 O          30.9514  -50.3480  -57.4622 O.2       4 UNK        -0.5119 
     52 CA         32.8055  -50.8234  -56.0243 C.3       4 UNK         0.0263 
     53 CB         34.2507  -50.4419  -56.3875 C.3       4 UNK        -0.1967 
     54 N          32.6569  -50.9133  -54.5686 N.am      4 UNK        -0.4237 
     55 C          31.5749  -51.3726  -53.9255 C.2       3 UNK         0.4908 
     56 O          30.5094  -51.6451  -54.4797 O.2       3 UNK        -0.5102 
     57 CA         31.6969  -51.5880  -52.4056 C.3       3 UNK         0.0241 
     58 CB         32.7833  -52.6287  -52.0629 C.3       3 UNK        -0.1971 
     59 N          31.8621  -50.3550  -51.6248 N.am      3 UNK        -0.4139 
     60 C          32.8829  -49.4884  -51.6494 C.2       2 UNK         0.5016 
     61 O          33.8844  -49.6128  -52.3593 O.2       2 UNK        -0.5319 
     62 CA         32.7864  -48.2979  -50.6828 C.3       2 UNK         0.0286 
     63 CB         33.6940  -48.5199  -49.4621 C.3       2 UNK        -0.1963 
     64 N          33.1945  -47.0746  -51.3683 N.am      2 UNK        -0.4790 
     65 C          32.3804  -46.3277  -52.1270 C.2       1 UNK         0.5024 
     66 O          31.1664  -46.5132  -52.2090 O.2       1 UNK        -0.4888 
     67 H67        36.7640  -46.1322  -54.2045 H         1 UNK         0.0892 
     68 H68        36.2090  -46.7897  -55.7465 H         1 UNK         0.0892 
     69 H69        36.3865  -47.8518  -54.3470 H         1 UNK         0.0892 
     70 H70        35.1503  -45.0408  -53.0840 H         1 UNK         0.3107 
     71 H71        32.4252  -45.1024  -53.8575 H         1 UNK         0.0773 
     72 H72        33.2717  -43.9775  -51.1653 H         1 UNK         0.0680 
     73 H73        33.8742  -43.2258  -52.6045 H         1 UNK         0.0680 
     74 H74        31.3147  -40.7520  -53.4243 H         1 UNK         0.0650 
     75 H75        32.9725  -41.2792  -53.4463 H         1 UNK         0.0650 
     76 H76        33.5639  -43.2720  -55.0604 H         1 UNK         0.1397 
     77 H77        31.3317  -43.2718  -58.7199 H         1 UNK         0.1363 
     78 H78        29.9517  -40.9896  -55.3613 H         1 UNK         0.1355 
     79 H79        29.6359  -41.4337  -58.9852 H         1 UNK         0.0707 
     80 H80        28.9391  -40.6605  -57.5882 H         1 UNK         0.0707 
     81 H81        26.2682  -42.4041  -56.3371 H         1 UNK         0.1034 
     82 H82        27.8090  -41.8454  -55.7967 H         1 UNK         0.1034 
     83 H83        28.5223  -44.3359  -55.5994 H         1 UNK         0.0482 
     84 H84        26.6836  -45.5802  -53.4680 H         1 UNK         0.3460 
     85 H85        26.9690  -44.5335  -52.0992 H         1 UNK         0.3460 
     86 H86        27.1490  -45.9422  -56.1891 H         1 UNK         0.2989 
     87 H87        24.4781  -46.9677  -55.2298 H         1 UNK         0.0559 
     88 H88        22.7040  -47.2363  -56.9833 H         1 UNK         0.0848 
     89 H89        23.1949  -45.7000  -57.6977 H         1 UNK         0.0848 
     90 H90        22.5383  -45.7471  -56.0715 H         1 UNK         0.0848 
     91 H91        25.7357  -48.2075  -56.4885 H         1 UNK         0.3144 
     92 H92        25.9286  -48.9624  -59.6185 H         1 UNK         0.0727 
     93 H93        28.3936  -48.6767  -60.0989 H         1 UNK         0.0790 
     94 H94        28.4057  -47.2410  -59.0737 H         1 UNK         0.0790 
     95 H95        27.4409  -47.2700  -60.5382 H         1 UNK         0.0790 
     96 H96        27.8461  -49.0549  -57.3488 H         1 UNK         0.3215 
     97 H97        26.2457  -51.7346  -55.8042 H         1 UNK         0.0863 
     98 H98        28.3469  -53.0515  -56.0272 H         1 UNK         0.0808 
     99 H99        28.8300  -52.0856  -57.4198 H         1 UNK         0.0808 
    100 H100       27.4158  -53.1265  -57.5152 H         1 UNK         0.0808 
    101 H101       28.8432  -50.6576  -55.3704 H         1 UNK         0.3118 
    102 H102       27.8577  -47.5972  -53.7990 H         1 UNK         0.0546 
    103 H103       27.8135  -49.2237  -51.9672 H         1 UNK         0.0828 
    104 H104       29.4200  -48.5278  -52.0713 H         1 UNK         0.0828 
    105 H105       29.1116  -50.1561  -52.6849 H         1 UNK         0.0828 
    106 H106       30.4215  -48.6903  -54.4270 H         1 UNK         0.3005 
    107 H107       30.5510  -47.8561  -57.7950 H         1 UNK         0.1257 
    108 H108       31.8017  -45.9059  -55.8198 H         1 UNK         0.0775 
    109 H109       30.6006  -45.4609  -57.0044 H         1 UNK         0.0775 
    110 H110       34.2785  -44.6806  -56.8003 H         1 UNK         0.0840 
    111 H111       34.0434  -43.9749  -58.3804 H         1 UNK         0.0840 
    112 H112       32.5556  -48.2568  -55.6976 H         1 UNK         0.2987 
    113 H113       32.6211  -51.8221  -56.4258 H         1 UNK         0.0785 
    114 H114       34.5515  -49.4967  -55.9372 H         1 UNK         0.0798 
    115 H115       34.3692  -50.3412  -57.4672 H         1 UNK         0.0798 
    116 H116       34.9543  -51.2052  -56.0552 H         1 UNK         0.0798 
    117 H117       33.4356  -50.5977  -53.9961 H         1 UNK         0.3079 
    118 H118       30.7452  -52.0123  -52.0812 H         1 UNK         0.0794 
    119 H119       33.7852  -52.2855  -52.3218 H         1 UNK         0.0786 
    120 H120       32.6121  -53.5612  -52.6024 H         1 UNK         0.0786 
    121 H121       32.7790  -52.8663  -50.9991 H         1 UNK         0.0786 
    122 H122       31.0987  -50.1546  -50.9938 H         1 UNK         0.3032 
    123 H123       31.7566  -48.1914  -50.3333 H         1 UNK         0.1094 
    124 H124       33.6323  -47.6841  -48.7648 H         1 UNK         0.0794 
    125 H125       33.4017  -49.4185  -48.9170 H         1 UNK         0.0794 
    126 H126       34.7392  -48.6399  -49.7506 H         1 UNK         0.0794 
    127 H127       34.1875  -46.8994  -51.4194 H         1 UNK         0.3016 
@<TRIPOS>BOND
     1    1    2 1    
     2    1   67 1    
     3    1   68 1    
     4    1   69 1    
     5    2    3 2    
     6    2    4 am   BACKBONE|DICT|INTERRES
     7    4    5 1    
     8    4   70 1    
     9    5    6 1    
    10    5   65 1    
    11    5   71 1    
    12    6    7 1    
    13    6   72 1    
    14    6   73 1    
    15    7    8 1    
    16    8    9 1    
    17    8   74 1    
    18    8   75 1    
    19    9   10 ar   
    20    9   14 ar   
    21   10   11 ar   
    22   10   76 1    
    23   11   12 ar   
    24   11   48 1    
    25   12   13 ar   
    26   12   77 1    
    27   13   14 ar   
    28   13   15 1    
    29   14   78 1    
    30   15   16 1    
    31   15   79 1    
    32   15   80 1    
    33   16   17 1    
    34   17   18 1    
    35   17   81 1    
    36   17   82 1    
    37   18   19 1    
    38   18   22 1    
    39   18   83 1    
    40   19   20 am   BACKBONE|DICT|INTERRES
    41   19   21 2    
    42   20   84 1    
    43   20   85 1    
    44   22   23 am   BACKBONE|DICT|INTERRES
    45   22   86 1    
    46   23   24 2    
    47   23   25 1    
    48   25   26 1    
    49   25   27 1    
    50   25   87 1    
    51   26   88 1    
    52   26   89 1    
    53   26   90 1    
    54   27   28 am   BACKBONE|DICT|INTERRES
    55   27   91 1    
    56   28   29 2    
    57   28   30 1    
    58   30   31 1    
    59   30   32 1    
    60   30   92 1    
    61   31   93 1    
    62   31   94 1    
    63   31   95 1    
    64   32   33 am   BACKBONE|DICT|INTERRES
    65   32   96 1    
    66   33   34 2    
    67   33   35 1    
    68   35   36 1    
    69   35   37 1    
    70   35   97 1    
    71   36   98 1    
    72   36   99 1    
    73   36  100 1    
    74   37   38 am   BACKBONE|DICT|INTERRES
    75   37  101 1    
    76   38   39 2    
    77   38   40 1    
    78   40   41 1    
    79   40   42 1    
    80   40  102 1    
    81   41  103 1    
    82   41  104 1    
    83   41  105 1    
    84   42   43 am   BACKBONE|DICT|INTERRES
    85   42  106 1    
    86   43   44 2    
    87   43   45 1    
    88   45   46 1    
    89   45   49 1    
    90   45  107 1    
    91   46   47 1    
    92   46  108 1    
    93   46  109 1    
    94   47   48 1    
    95   48  110 1    
    96   48  111 1    
    97   49   50 am   BACKBONE|DICT|INTERRES
    98   49  112 1    
    99   50   51 2    
   100   50   52 1    
   101   52   53 1    
   102   52   54 1    
   103   52  113 1    
   104   53  114 1    
   105   53  115 1    
   106   53  116 1    
   107   54   55 am   BACKBONE|DICT|INTERRES
   108   54  117 1    
   109   55   56 2    
   110   55   57 1    
   111   57   58 1    
   112   57   59 1    
   113   57  118 1    
   114   58  119 1    
   115   58  120 1    
   116   58  121 1    
   117   59   60 am   BACKBONE|DICT|INTERRES
   118   59  122 1    
   119   60   61 2    
   120   60   62 1    
   121   62   63 1    
   122   62   64 1    
   123   62  123 1    
   124   63  124 1    
   125   63  125 1    
   126   63  126 1    
   127   64   65 am   BACKBONE|DICT|INTERRES
   128   64  127 1    
   129   65   66 2    
@<TRIPOS>SUBSTRUCTURE
     1 UNK         1 GROUP             0       ****    0 ROOT    
