@<TRIPOS>MOLECULE
3R134
127   129    1
SMALL
USER_CHARGES


@<TRIPOS>ATOM
      1 CA         33.0754  -45.2018  -49.7130 C.3       0 UNK        -0.1968 
      2 C          33.9390  -44.9083  -50.9307 C.2       0 UNK         0.4852 
      3 O          34.2133  -43.7433  -51.2219 O.2       0 UNK        -0.5359 
      4 N          34.3754  -45.9579  -51.6327 N.am      1 UNK        -0.4300 
      5 CA         35.2523  -45.9025  -52.8009 C.3       1 UNK         0.0863 
      6 C6         34.5228  -45.4348  -54.0928 C.3       11 UNK        -0.0953 
      7 S7         33.2225  -46.5726  -54.6847 S.3       11 UNK        -0.2369 
      8 C8         32.2670  -45.4505  -55.7622 C.3       11 UNK         0.0226 
      9 C9         31.3328  -44.4634  -55.0567 C.ar      11 UNK        -0.0699 
     10 C10        31.0443  -44.5321  -53.6862 C.ar      11 UNK        -0.0804 
     11 C11        30.1463  -43.6364  -53.0948 C.ar      11 UNK        -0.0871 
     12 C12        29.5551  -42.6445  -53.8799 C.ar      11 UNK        -0.1008 
     13 C13        29.8475  -42.5451  -55.2416 C.ar      11 UNK        -0.0735 
     14 C14        30.7280  -43.4614  -55.8244 C.ar      11 UNK        -0.0945 
     15 C15        29.2270  -41.4252  -56.0634 C.3       11 UNK         0.0169 
     16 S16        27.5888  -41.8871  -56.7040 S.3       11 UNK        -0.2669 
     17 C17        28.0245  -42.4698  -58.3757 C.3       11 UNK        -0.0850 
     18 CA         26.8296  -43.1452  -59.0965 C.3       10 UNK         0.0855 
     19 C          27.1482  -43.3618  -60.6069 C.2       10 UNK         0.5543 
     20 N          27.2174  -44.5851  -61.1184 N.am      10 UNK        -0.7343 
     21 O          27.3332  -42.3891  -61.3342 O.2       10 UNK        -0.5027 
     22 N          26.3882  -44.3500  -58.3783 N.am      10 UNK        -0.4495 
     23 C          25.2175  -44.9747  -58.5552 C.2       10 UNK         0.4903 
     24 O          24.3090  -44.5374  -59.2635 O.2       10 UNK        -0.4860 
     25 CA         25.0500  -46.3258  -57.8270 C.3       9 UNK         0.0227 
     26 CB         23.9756  -47.2237  -58.4747 C.3       9 UNK        -0.1964 
     27 N          26.3089  -47.0694  -57.6714 N.am      9 UNK        -0.4231 
     28 C          27.1510  -47.4525  -58.6460 C.2       9 UNK         0.5014 
     29 O          26.9840  -47.2049  -59.8409 O.2       9 UNK        -0.5270 
     30 CA         28.4077  -48.2213  -58.2130 C.3       8 UNK         0.0284 
     31 CB         29.4797  -47.2562  -57.6850 C.3       8 UNK        -0.1977 
     32 N          28.1234  -49.2351  -57.1994 N.am      8 UNK        -0.4342 
     33 C          27.4335  -50.3621  -57.4230 C.2       8 UNK         0.5039 
     34 O          27.0065  -50.7040  -58.5265 O.2       8 UNK        -0.5547 
     35 CA         27.1653  -51.2530  -56.2020 C.3       7 UNK         0.0281 
     36 CB         28.4069  -52.0894  -55.8503 C.3       7 UNK        -0.1963 
     37 N          26.7456  -50.4612  -55.0439 N.am      7 UNK        -0.4444 
     38 C          25.5224  -49.9309  -54.8995 C.2       7 UNK         0.5104 
     39 O          24.6000  -50.1069  -55.6955 O.2       7 UNK        -0.5100 
     40 CA         25.2791  -49.0574  -53.6561 C.3       6 UNK         0.0396 
     41 CB         24.6677  -49.8973  -52.5235 C.3       6 UNK        -0.1801 
     42 N          26.4883  -48.3914  -53.1650 N.am      6 UNK        -0.4747 
     43 C          27.1000  -47.3713  -53.7843 C.2       6 UNK         0.5012 
     44 O          26.7207  -46.8885  -54.8512 O.2       6 UNK        -0.5003 
     45 CA         28.3875  -46.8482  -53.1209 C.3       5 UNK         0.0782 
     46 C46        28.0549  -45.9029  -51.9364 C.3       11 UNK        -0.0868 
     47 S47        29.5313  -45.3917  -50.9882 S.3       11 UNK        -0.2515 
     48 C48        29.8280  -43.7015  -51.6044 C.3       11 UNK         0.0199 
     49 N          29.2957  -47.9350  -52.7334 N.am      5 UNK        -0.4607 
     50 C          29.8438  -48.8141  -53.5773 C.2       4 UNK         0.5031 
     51 O          29.5512  -48.9005  -54.7730 O.2       4 UNK        -0.5119 
     52 CA         30.8804  -49.7714  -52.9894 C.3       4 UNK         0.0263 
     53 CB         30.2197  -51.0474  -52.4394 C.3       4 UNK        -0.1967 
     54 N          31.8140  -50.0957  -54.0597 N.am      4 UNK        -0.4237 
     55 C          33.0949  -50.4406  -53.9049 C.2       3 UNK         0.4908 
     56 O          33.6082  -50.6662  -52.8078 O.2       3 UNK        -0.5102 
     57 CA         33.9599  -50.5298  -55.1761 C.3       3 UNK         0.0241 
     58 CB         33.2027  -50.2058  -56.4834 C.3       3 UNK        -0.1971 
     59 N          35.0757  -49.5969  -55.0332 N.am      3 UNK        -0.4139 
     60 C          36.3248  -49.9213  -54.6741 C.2       2 UNK         0.5016 
     61 O          36.7275  -51.0786  -54.5454 O.2       2 UNK        -0.5319 
     62 CA         37.3006  -48.7553  -54.4142 C.3       2 UNK         0.0286 
     63 CB         38.2103  -48.5340  -55.6339 C.3       2 UNK        -0.1963 
     64 N          36.6351  -47.4900  -54.0767 N.am      2 UNK        -0.4790 
     65 C          35.9729  -47.2602  -52.9334 C.2       1 UNK         0.5024 
     66 O          35.9105  -48.0783  -52.0115 O.2       1 UNK        -0.4888 
     67 H67        32.2608  -44.4825  -49.6426 H         1 UNK         0.0892 
     68 H68        32.6382  -46.1991  -49.7593 H         1 UNK         0.0892 
     69 H69        33.6714  -45.1289  -48.8039 H         1 UNK         0.0892 
     70 H70        34.1911  -46.9020  -51.3160 H         1 UNK         0.3107 
     71 H71        36.0396  -45.1778  -52.5825 H         1 UNK         0.0773 
     72 H72        34.0727  -44.4568  -53.9168 H         1 UNK         0.0680 
     73 H73        35.2359  -45.2763  -54.9029 H         1 UNK         0.0680 
     74 H74        31.6678  -46.0657  -56.4306 H         1 UNK         0.0650 
     75 H75        32.9647  -44.9015  -56.3964 H         1 UNK         0.0650 
     76 H76        31.5013  -45.2908  -53.0683 H         1 UNK         0.1397 
     77 H77        28.8713  -41.9370  -53.4305 H         1 UNK         0.1363 
     78 H78        30.9492  -43.3905  -56.8805 H         1 UNK         0.1355 
     79 H79        29.1175  -40.5350  -55.4419 H         1 UNK         0.0707 
     80 H80        29.8880  -41.1370  -56.8824 H         1 UNK         0.0707 
     81 H81        28.3771  -41.6045  -58.9410 H         1 UNK         0.1034 
     82 H82        28.8686  -43.1588  -58.3124 H         1 UNK         0.1034 
     83 H83        25.9958  -42.4406  -59.0762 H         1 UNK         0.0482 
     84 H84        27.4211  -44.6930  -62.0989 H         1 UNK         0.3460 
     85 H85        27.0611  -45.4104  -60.5473 H         1 UNK         0.3460 
     86 H86        27.0654  -44.7719  -57.7614 H         1 UNK         0.2989 
     87 H87        24.7150  -46.0856  -56.8170 H         1 UNK         0.0559 
     88 H88        23.0014  -46.7333  -58.4767 H         1 UNK         0.0848 
     89 H89        23.8638  -48.1615  -57.9298 H         1 UNK         0.0848 
     90 H90        24.2220  -47.4646  -59.5093 H         1 UNK         0.0848 
     91 H91        26.5705  -47.2570  -56.7057 H         1 UNK         0.3144 
     92 H92        28.8094  -48.7266  -59.0939 H         1 UNK         0.0727 
     93 H93        29.1590  -46.7502  -56.7730 H         1 UNK         0.0790 
     94 H94        29.7160  -46.4883  -58.4229 H         1 UNK         0.0790 
     95 H95        30.4041  -47.7896  -57.4625 H         1 UNK         0.0790 
     96 H96        28.4974  -49.0658  -56.2670 H         1 UNK         0.3215 
     97 H97        26.3580  -51.9423  -56.4603 H         1 UNK         0.0863 
     98 H98        28.2179  -52.7425  -54.9983 H         1 UNK         0.0808 
     99 H99        29.2686  -51.4649  -55.6145 H         1 UNK         0.0808 
    100 H100       28.6918  -52.7272  -56.6881 H         1 UNK         0.0808 
    101 H101       27.4515  -50.2320  -54.3601 H         1 UNK         0.3118 
    102 H102       24.5570  -48.2862  -53.9339 H         1 UNK         0.0546 
    103 H103       25.3478  -50.6808  -52.1869 H         1 UNK         0.0828 
    104 H104       23.7483  -50.3840  -52.8522 H         1 UNK         0.0828 
    105 H105       24.4134  -49.2788  -51.6626 H         1 UNK         0.0828 
    106 H106       26.8821  -48.7341  -52.3001 H         1 UNK         0.3005 
    107 H107       28.9052  -46.2631  -53.8837 H         1 UNK         0.1257 
    108 H108       27.3777  -46.3912  -51.2329 H         1 UNK         0.0775 
    109 H109       27.5286  -45.0157  -52.2942 H         1 UNK         0.0775 
    110 H110       28.9562  -43.0898  -51.3665 H         1 UNK         0.0840 
    111 H111       30.6641  -43.2679  -51.0550 H         1 UNK         0.0840 
    112 H112       29.5902  -47.9286  -51.7673 H         1 UNK         0.2987 
    113 H113       31.4160  -49.2570  -52.1882 H         1 UNK         0.0785 
    114 H114       29.5052  -50.8106  -51.6502 H         1 UNK         0.0798 
    115 H115       30.9612  -51.7218  -52.0108 H         1 UNK         0.0798 
    116 H116       29.6833  -51.5941  -53.2143 H         1 UNK         0.0798 
    117 H117       31.4603  -49.8817  -54.9842 H         1 UNK         0.3079 
    118 H118       34.3266  -51.5560  -55.2432 H         1 UNK         0.0794 
    119 H119       33.8636  -50.2977  -57.3456 H         1 UNK         0.0786 
    120 H120       32.8006  -49.1915  -56.4890 H         1 UNK         0.0786 
    121 H121       32.3755  -50.8982  -56.6466 H         1 UNK         0.0786 
    122 H122       34.8397  -48.6149  -55.0676 H         1 UNK         0.3032 
    123 H123       37.9272  -49.0454  -53.5674 H         1 UNK         0.1094 
    124 H124       37.6413  -48.2286  -56.5130 H         1 UNK         0.0794 
    125 H125       38.9620  -47.7697  -55.4360 H         1 UNK         0.0794 
    126 H126       38.7437  -49.4497  -55.8937 H         1 UNK         0.0794 
    127 H127       36.6527  -46.7677  -54.7829 H         1 UNK         0.3016 
@<TRIPOS>BOND
     1    1    2 1    
     2    1   67 1    
     3    1   68 1    
     4    1   69 1    
     5    2    3 2    
     6    2    4 am   BACKBONE|DICT|INTERRES
     7    4    5 1    
     8    4   70 1    
     9    5    6 1    
    10    5   65 1    
    11    5   71 1    
    12    6    7 1    
    13    6   72 1    
    14    6   73 1    
    15    7    8 1    
    16    8    9 1    
    17    8   74 1    
    18    8   75 1    
    19    9   10 ar   
    20    9   14 ar   
    21   10   11 ar   
    22   10   76 1    
    23   11   12 ar   
    24   11   48 1    
    25   12   13 ar   
    26   12   77 1    
    27   13   14 ar   
    28   13   15 1    
    29   14   78 1    
    30   15   16 1    
    31   15   79 1    
    32   15   80 1    
    33   16   17 1    
    34   17   18 1    
    35   17   81 1    
    36   17   82 1    
    37   18   19 1    
    38   18   22 1    
    39   18   83 1    
    40   19   20 am   BACKBONE|DICT|INTERRES
    41   19   21 2    
    42   20   84 1    
    43   20   85 1    
    44   22   23 am   BACKBONE|DICT|INTERRES
    45   22   86 1    
    46   23   24 2    
    47   23   25 1    
    48   25   26 1    
    49   25   27 1    
    50   25   87 1    
    51   26   88 1    
    52   26   89 1    
    53   26   90 1    
    54   27   28 am   BACKBONE|DICT|INTERRES
    55   27   91 1    
    56   28   29 2    
    57   28   30 1    
    58   30   31 1    
    59   30   32 1    
    60   30   92 1    
    61   31   93 1    
    62   31   94 1    
    63   31   95 1    
    64   32   33 am   BACKBONE|DICT|INTERRES
    65   32   96 1    
    66   33   34 2    
    67   33   35 1    
    68   35   36 1    
    69   35   37 1    
    70   35   97 1    
    71   36   98 1    
    72   36   99 1    
    73   36  100 1    
    74   37   38 am   BACKBONE|DICT|INTERRES
    75   37  101 1    
    76   38   39 2    
    77   38   40 1    
    78   40   41 1    
    79   40   42 1    
    80   40  102 1    
    81   41  103 1    
    82   41  104 1    
    83   41  105 1    
    84   42   43 am   BACKBONE|DICT|INTERRES
    85   42  106 1    
    86   43   44 2    
    87   43   45 1    
    88   45   46 1    
    89   45   49 1    
    90   45  107 1    
    91   46   47 1    
    92   46  108 1    
    93   46  109 1    
    94   47   48 1    
    95   48  110 1    
    96   48  111 1    
    97   49   50 am   BACKBONE|DICT|INTERRES
    98   49  112 1    
    99   50   51 2    
   100   50   52 1    
   101   52   53 1    
   102   52   54 1    
   103   52  113 1    
   104   53  114 1    
   105   53  115 1    
   106   53  116 1    
   107   54   55 am   BACKBONE|DICT|INTERRES
   108   54  117 1    
   109   55   56 2    
   110   55   57 1    
   111   57   58 1    
   112   57   59 1    
   113   57  118 1    
   114   58  119 1    
   115   58  120 1    
   116   58  121 1    
   117   59   60 am   BACKBONE|DICT|INTERRES
   118   59  122 1    
   119   60   61 2    
   120   60   62 1    
   121   62   63 1    
   122   62   64 1    
   123   62  123 1    
   124   63  124 1    
   125   63  125 1    
   126   63  126 1    
   127   64   65 am   BACKBONE|DICT|INTERRES
   128   64  127 1    
   129   65   66 2    
@<TRIPOS>SUBSTRUCTURE
     1 UNK         1 GROUP             0       ****    0 ROOT    
