@<TRIPOS>MOLECULE
3R134
127   129    1
SMALL
USER_CHARGES


@<TRIPOS>ATOM
      1 CA         37.7018  -45.4982  -55.6499 C.3       0 UNK        -0.1968 
      2 C          36.2938  -45.6990  -55.1097 C.2       0 UNK         0.4852 
      3 O          35.4438  -46.2471  -55.8106 O.2       0 UNK        -0.5359 
      4 N          36.0429  -45.2583  -53.8698 N.am      1 UNK        -0.4300 
      5 CA         34.7456  -45.3620  -53.1893 C.3       1 UNK         0.0863 
      6 C6         34.6152  -44.3153  -52.0539 C.3       11 UNK        -0.0953 
      7 S7         34.6944  -42.5574  -52.5607 S.3       11 UNK        -0.2369 
      8 C8         33.8898  -42.4832  -54.2057 C.3       11 UNK         0.0226 
      9 C9         32.4306  -42.9457  -54.2794 C.ar      11 UNK        -0.0699 
     10 C10        31.6349  -43.1491  -53.1436 C.ar      11 UNK        -0.0804 
     11 C11        30.3185  -43.6045  -53.2604 C.ar      11 UNK        -0.0871 
     12 C12        29.7751  -43.8142  -54.5297 C.ar      11 UNK        -0.1008 
     13 C13        30.5448  -43.5920  -55.6737 C.ar      11 UNK        -0.0735 
     14 C14        31.8704  -43.1684  -55.5420 C.ar      11 UNK        -0.0945 
     15 C15        29.9324  -43.7971  -57.0487 C.3       11 UNK         0.0169 
     16 S16        28.9815  -42.3263  -57.5407 S.3       11 UNK        -0.2669 
     17 C17        28.1814  -42.8968  -59.0770 C.3       11 UNK        -0.0850 
     18 CA         26.6940  -43.2766  -58.8568 C.3       10 UNK         0.0855 
     19 C          25.9922  -43.5436  -60.2146 C.2       10 UNK         0.5543 
     20 N          25.1227  -42.6459  -60.6566 N.am      10 UNK        -0.7343 
     21 O          26.2711  -44.5324  -60.8891 O.2       10 UNK        -0.5027 
     22 N          26.5725  -44.4269  -57.9538 N.am      10 UNK        -0.4495 
     23 C          25.4449  -44.8519  -57.3714 C.2       10 UNK         0.4903 
     24 O          24.3661  -44.2618  -57.4472 O.2       10 UNK        -0.4860 
     25 CA         25.5648  -46.1595  -56.5608 C.3       9 UNK         0.0227 
     26 CB         24.2020  -46.8095  -56.2424 C.3       9 UNK        -0.1964 
     27 N          26.4796  -47.1248  -57.1848 N.am      9 UNK        -0.4231 
     28 C          26.3595  -47.6870  -58.3991 C.2       9 UNK         0.5014 
     29 O          25.3915  -47.5349  -59.1443 O.2       9 UNK        -0.5270 
     30 CA         27.5241  -48.5697  -58.8608 C.3       8 UNK         0.0284 
     31 CB         28.7482  -47.7146  -59.2377 C.3       8 UNK        -0.1977 
     32 N          27.8854  -49.5281  -57.8154 N.am      8 UNK        -0.4342 
     33 C          27.7119  -50.8523  -57.9095 C.2       8 UNK         0.5039 
     34 O          27.2801  -51.4226  -58.9127 O.2       8 UNK        -0.5547 
     35 CA         28.0846  -51.6967  -56.6811 C.3       7 UNK         0.0281 
     36 CB         29.5705  -52.0895  -56.7269 C.3       7 UNK        -0.1963 
     37 N          27.7897  -51.0449  -55.4030 N.am      7 UNK        -0.4444 
     38 C          26.5562  -50.8357  -54.9194 C.2       7 UNK         0.5104 
     39 O          25.5245  -51.1018  -55.5360 O.2       7 UNK        -0.5100 
     40 CA         26.4507  -50.2510  -53.5030 C.3       6 UNK         0.0396 
     41 CB         26.6517  -51.3565  -52.4537 C.3       6 UNK        -0.1801 
     42 N          27.4412  -49.1969  -53.2855 N.am      6 UNK        -0.4747 
     43 C          27.1615  -47.8895  -53.1865 C.2       6 UNK         0.5012 
     44 O          26.0200  -47.4290  -53.2035 O.2       6 UNK        -0.5003 
     45 CA         28.3552  -46.9186  -53.0510 C.3       5 UNK         0.0782 
     46 C46        28.5471  -46.5184  -51.5663 C.3       11 UNK        -0.0868 
     47 S47        29.9871  -45.4457  -51.2396 S.3       11 UNK        -0.2515 
     48 C48        29.4976  -43.8678  -52.0069 C.3       11 UNK         0.0199 
     49 N          29.5884  -47.4228  -53.6666 N.am      5 UNK        -0.4607 
     50 C          29.7344  -47.7117  -54.9658 C.2       4 UNK         0.5031 
     51 O          28.8399  -47.5787  -55.8015 O.2       4 UNK        -0.5119 
     52 CA         31.0809  -48.2999  -55.4107 C.3       4 UNK         0.0263 
     53 CB         32.0308  -47.1637  -55.8161 C.3       4 UNK        -0.1967 
     54 N          31.7446  -49.1658  -54.4271 N.am      4 UNK        -0.4237 
     55 C          31.2127  -50.2032  -53.7636 C.2       3 UNK         0.4908 
     56 O          30.0240  -50.5174  -53.8369 O.2       3 UNK        -0.5102 
     57 CA         32.1305  -51.0362  -52.8461 C.3       3 UNK         0.0241 
     58 CB         32.5381  -52.3521  -53.5373 C.3       3 UNK        -0.1971 
     59 N          33.3000  -50.3270  -52.3007 N.am      3 UNK        -0.4139 
     60 C          34.3651  -49.8391  -52.9523 C.2       2 UNK         0.5016 
     61 O          34.5399  -49.9376  -54.1681 O.2       2 UNK        -0.5319 
     62 CA         35.3727  -49.0361  -52.1117 C.3       2 UNK         0.0286 
     63 CB         36.7650  -49.6874  -52.1520 C.3       2 UNK        -0.1963 
     64 N          35.4735  -47.6489  -52.5762 N.am      2 UNK        -0.4790 
     65 C          34.4550  -46.7760  -52.6419 C.2       1 UNK         0.5024 
     66 O          33.3105  -47.0452  -52.2745 O.2       1 UNK        -0.4888 
     67 H67        38.1491  -46.4605  -55.8975 H         1 UNK         0.0892 
     68 H68        37.6723  -44.8929  -56.5556 H         1 UNK         0.0892 
     69 H69        38.3489  -44.9982  -54.9294 H         1 UNK         0.0892 
     70 H70        36.7751  -44.7999  -53.3456 H         1 UNK         0.3107 
     71 H71        33.9606  -45.1793  -53.9229 H         1 UNK         0.0773 
     72 H72        33.6725  -44.4512  -51.5209 H         1 UNK         0.0680 
     73 H73        35.3944  -44.4761  -51.3066 H         1 UNK         0.0680 
     74 H74        33.9296  -41.4475  -54.5451 H         1 UNK         0.0650 
     75 H75        34.4914  -43.0527  -54.9150 H         1 UNK         0.0650 
     76 H76        32.0310  -42.9695  -52.1554 H         1 UNK         0.1397 
     77 H77        28.7494  -44.1358  -54.6365 H         1 UNK         0.1363 
     78 H78        32.4665  -43.0009  -56.4288 H         1 UNK         0.1355 
     79 H79        30.7083  -43.9956  -57.7898 H         1 UNK         0.0707 
     80 H80        29.2859  -44.6754  -57.0319 H         1 UNK         0.0707 
     81 H81        28.2585  -42.0825  -59.8004 H         1 UNK         0.1034 
     82 H82        28.7410  -43.7304  -59.5064 H         1 UNK         0.1034 
     83 H83        26.1985  -42.4306  -58.3752 H         1 UNK         0.0482 
     84 H84        24.6717  -42.7961  -61.5457 H         1 UNK         0.3460 
     85 H85        24.8943  -41.8293  -60.1109 H         1 UNK         0.3460 
     86 H86        27.3962  -44.9978  -57.8573 H         1 UNK         0.2989 
     87 H87        26.0237  -45.8823  -55.6109 H         1 UNK         0.0559 
     88 H88        23.5762  -46.1357  -55.6562 H         1 UNK         0.0848 
     89 H89        24.3275  -47.7219  -55.6588 H         1 UNK         0.0848 
     90 H90        23.6493  -47.0615  -57.1477 H         1 UNK         0.0848 
     91 H91        27.3365  -47.3046  -56.6610 H         1 UNK         0.3144 
     92 H92        27.1974  -49.0904  -59.7635 H         1 UNK         0.0727 
     93 H93        29.1486  -47.1627  -58.3875 H         1 UNK         0.0790 
     94 H94        28.4898  -46.9852  -60.0069 H         1 UNK         0.0790 
     95 H95        29.5508  -48.3347  -59.6371 H         1 UNK         0.0790 
     96 H96        28.2251  -49.1399  -56.9427 H         1 UNK         0.3215 
     97 H97        27.4941  -52.6146  -56.7267 H         1 UNK         0.0863 
     98 H98        29.8326  -52.7483  -55.8988 H         1 UNK         0.0808 
     99 H99        30.2226  -51.2175  -56.6794 H         1 UNK         0.0808 
    100 H100       29.8049  -52.6212  -57.6501 H         1 UNK         0.0808 
    101 H101       28.5910  -50.8295  -54.8111 H         1 UNK         0.3118 
    102 H102       25.4392  -49.8572  -53.3839 H         1 UNK         0.0546 
    103 H103       27.6493  -51.7945  -52.5107 H         1 UNK         0.0828 
    104 H104       25.9314  -52.1637  -52.5935 H         1 UNK         0.0828 
    105 H105       26.5137  -50.9711  -51.4436 H         1 UNK         0.0828 
    106 H106       28.4153  -49.4836  -53.2924 H         1 UNK         0.3005 
    107 H107       28.0692  -46.0254  -53.6057 H         1 UNK         0.1257 
    108 H108       27.6540  -46.0175  -51.1870 H         1 UNK         0.0775 
    109 H109       28.6722  -47.4117  -50.9508 H         1 UNK         0.0775 
    110 H110       28.4297  -43.8618  -52.2295 H         1 UNK         0.0840 
    111 H111       29.6608  -43.0618  -51.2898 H         1 UNK         0.0840 
    112 H112       30.3827  -47.5350  -53.0521 H         1 UNK         0.2987 
    113 H113       30.8898  -48.9119  -56.2934 H         1 UNK         0.0785 
    114 H114       31.5939  -46.5498  -56.6049 H         1 UNK         0.0798 
    115 H115       32.9785  -47.5487  -56.1933 H         1 UNK         0.0798 
    116 H116       32.2469  -46.5033  -54.9757 H         1 UNK         0.0798 
    117 H117       32.7461  -49.0401  -54.3266 H         1 UNK         0.3079 
    118 H118       31.5227  -51.3006  -51.9793 H         1 UNK         0.0794 
    119 H119       33.1273  -52.9838  -52.8726 H         1 UNK         0.0786 
    120 H120       33.1235  -52.1761  -54.4402 H         1 UNK         0.0786 
    121 H121       31.6576  -52.9250  -53.8317 H         1 UNK         0.0786 
    122 H122       33.2416  -50.1354  -51.3097 H         1 UNK         0.3032 
    123 H123       35.0354  -49.0143  -51.0731 H         1 UNK         0.1094 
    124 H124       37.1735  -49.7055  -53.1635 H         1 UNK         0.0794 
    125 H125       37.4717  -49.1572  -51.5132 H         1 UNK         0.0794 
    126 H126       36.7228  -50.7191  -51.8000 H         1 UNK         0.0794 
    127 H127       36.3725  -47.3525  -52.9258 H         1 UNK         0.3016 
@<TRIPOS>BOND
     1    1    2 1    
     2    1   67 1    
     3    1   68 1    
     4    1   69 1    
     5    2    3 2    
     6    2    4 am   BACKBONE|DICT|INTERRES
     7    4    5 1    
     8    4   70 1    
     9    5    6 1    
    10    5   65 1    
    11    5   71 1    
    12    6    7 1    
    13    6   72 1    
    14    6   73 1    
    15    7    8 1    
    16    8    9 1    
    17    8   74 1    
    18    8   75 1    
    19    9   10 ar   
    20    9   14 ar   
    21   10   11 ar   
    22   10   76 1    
    23   11   12 ar   
    24   11   48 1    
    25   12   13 ar   
    26   12   77 1    
    27   13   14 ar   
    28   13   15 1    
    29   14   78 1    
    30   15   16 1    
    31   15   79 1    
    32   15   80 1    
    33   16   17 1    
    34   17   18 1    
    35   17   81 1    
    36   17   82 1    
    37   18   19 1    
    38   18   22 1    
    39   18   83 1    
    40   19   20 am   BACKBONE|DICT|INTERRES
    41   19   21 2    
    42   20   84 1    
    43   20   85 1    
    44   22   23 am   BACKBONE|DICT|INTERRES
    45   22   86 1    
    46   23   24 2    
    47   23   25 1    
    48   25   26 1    
    49   25   27 1    
    50   25   87 1    
    51   26   88 1    
    52   26   89 1    
    53   26   90 1    
    54   27   28 am   BACKBONE|DICT|INTERRES
    55   27   91 1    
    56   28   29 2    
    57   28   30 1    
    58   30   31 1    
    59   30   32 1    
    60   30   92 1    
    61   31   93 1    
    62   31   94 1    
    63   31   95 1    
    64   32   33 am   BACKBONE|DICT|INTERRES
    65   32   96 1    
    66   33   34 2    
    67   33   35 1    
    68   35   36 1    
    69   35   37 1    
    70   35   97 1    
    71   36   98 1    
    72   36   99 1    
    73   36  100 1    
    74   37   38 am   BACKBONE|DICT|INTERRES
    75   37  101 1    
    76   38   39 2    
    77   38   40 1    
    78   40   41 1    
    79   40   42 1    
    80   40  102 1    
    81   41  103 1    
    82   41  104 1    
    83   41  105 1    
    84   42   43 am   BACKBONE|DICT|INTERRES
    85   42  106 1    
    86   43   44 2    
    87   43   45 1    
    88   45   46 1    
    89   45   49 1    
    90   45  107 1    
    91   46   47 1    
    92   46  108 1    
    93   46  109 1    
    94   47   48 1    
    95   48  110 1    
    96   48  111 1    
    97   49   50 am   BACKBONE|DICT|INTERRES
    98   49  112 1    
    99   50   51 2    
   100   50   52 1    
   101   52   53 1    
   102   52   54 1    
   103   52  113 1    
   104   53  114 1    
   105   53  115 1    
   106   53  116 1    
   107   54   55 am   BACKBONE|DICT|INTERRES
   108   54  117 1    
   109   55   56 2    
   110   55   57 1    
   111   57   58 1    
   112   57   59 1    
   113   57  118 1    
   114   58  119 1    
   115   58  120 1    
   116   58  121 1    
   117   59   60 am   BACKBONE|DICT|INTERRES
   118   59  122 1    
   119   60   61 2    
   120   60   62 1    
   121   62   63 1    
   122   62   64 1    
   123   62  123 1    
   124   63  124 1    
   125   63  125 1    
   126   63  126 1    
   127   64   65 am   BACKBONE|DICT|INTERRES
   128   64  127 1    
   129   65   66 2    
@<TRIPOS>SUBSTRUCTURE
     1 UNK         1 GROUP             0       ****    0 ROOT    
