@<TRIPOS>MOLECULE
3R134
127   129    1
SMALL
USER_CHARGES


@<TRIPOS>ATOM
      1 CA         29.5740  -44.3132  -50.2528 C.3       0 UNK        -0.1968 
      2 C          30.7224  -44.5520  -51.2212 C.2       0 UNK         0.4852 
      3 O          30.5010  -45.0800  -52.3118 O.2       0 UNK        -0.5359 
      4 N          31.9416  -44.1681  -50.8191 N.am      1 UNK        -0.4300 
      5 CA         33.2122  -44.2604  -51.5549 C.3       1 UNK         0.0863 
      6 C6         33.2077  -43.5817  -52.9495 C.3       11 UNK        -0.0953 
      7 S7         32.6833  -41.8317  -52.8838 S.3       11 UNK        -0.2369 
      8 C8         33.2224  -41.2167  -54.5111 C.3       11 UNK         0.0226 
      9 C9         32.5570  -41.9791  -55.6464 C.ar      11 UNK        -0.0699 
     10 C10        33.2057  -43.0734  -56.2199 C.ar      11 UNK        -0.0804 
     11 C11        32.5834  -43.8286  -57.2154 C.ar      11 UNK        -0.0871 
     12 C12        31.3110  -43.4610  -57.6644 C.ar      11 UNK        -0.1008 
     13 C13        30.6641  -42.3434  -57.1252 C.ar      11 UNK        -0.0735 
     14 C14        31.2936  -41.6071  -56.1138 C.ar      11 UNK        -0.0945 
     15 C15        29.3114  -41.9076  -57.6772 C.3       11 UNK         0.0169 
     16 S16        28.0650  -41.5933  -56.3853 S.3       11 UNK        -0.2669 
     17 C17        27.6436  -43.2779  -55.8177 C.3       11 UNK        -0.0850 
     18 CA         28.0082  -43.5525  -54.3270 C.3       10 UNK         0.0855 
     19 C          27.0315  -42.8805  -53.3065 C.2       10 UNK         0.5543 
     20 N          26.6376  -43.5458  -52.2266 N.am      10 UNK        -0.7343 
     21 O          26.6429  -41.7270  -53.4681 O.2       10 UNK        -0.5027 
     22 N          28.2561  -44.9840  -54.0737 N.am      10 UNK        -0.4495 
     23 C          27.3766  -45.9765  -54.2613 C.2       10 UNK         0.4903 
     24 O          26.2347  -45.8138  -54.6984 O.2       10 UNK        -0.4860 
     25 CA         27.8399  -47.3798  -53.8374 C.3       9 UNK         0.0227 
     26 CB         27.7476  -47.5442  -52.3118 C.3       9 UNK        -0.1964 
     27 N          27.0469  -48.4329  -54.4731 N.am      9 UNK        -0.4231 
     28 C          27.1498  -48.7765  -55.7604 C.2       9 UNK         0.5014 
     29 O          27.9954  -48.3062  -56.5293 O.2       9 UNK        -0.5270 
     30 CA         26.1373  -49.8175  -56.2669 C.3       8 UNK         0.0284 
     31 CB         24.7340  -49.1988  -56.3854 C.3       8 UNK        -0.1977 
     32 N          26.5599  -50.2652  -57.5886 N.am      8 UNK        -0.4342 
     33 C          27.0703  -51.4587  -57.8974 C.2       8 UNK         0.5039 
     34 O          27.0078  -52.4429  -57.1613 O.2       8 UNK        -0.5547 
     35 CA         27.8383  -51.5604  -59.2299 C.3       7 UNK         0.0281 
     36 CB         26.9015  -51.9222  -60.3992 C.3       7 UNK        -0.1963 
     37 N          28.6652  -50.3746  -59.5194 N.am      7 UNK        -0.4444 
     38 C          28.2728  -49.1315  -59.8416 C.2       7 UNK         0.5104 
     39 O          27.0986  -48.8096  -60.0282 O.2       7 UNK        -0.5100 
     40 CA         29.3720  -48.0614  -59.8378 C.3       6 UNK         0.0396 
     41 CB         28.8365  -46.6368  -60.0742 C.3       6 UNK        -0.1801 
     42 N          30.0408  -48.1127  -58.5403 N.am      6 UNK        -0.4747 
     43 C          31.3635  -48.1755  -58.3553 C.2       6 UNK         0.5012 
     44 O          32.1849  -48.1258  -59.2719 O.2       6 UNK        -0.5003 
     45 CA         31.8529  -48.3579  -56.9023 C.3       5 UNK         0.0782 
     46 C46        32.0329  -46.9869  -56.2011 C.3       11 UNK        -0.0868 
     47 S47        33.6814  -46.2840  -56.5363 S.3       11 UNK        -0.2515 
     48 C48        33.3018  -45.0323  -57.8051 C.3       11 UNK         0.0199 
     49 N          31.0352  -49.2860  -56.1065 N.am      5 UNK        -0.4607 
     50 C          30.7847  -50.5646  -56.4316 C.2       4 UNK         0.5031 
     51 O          31.1645  -51.0888  -57.4798 O.2       4 UNK        -0.5119 
     52 CA         30.0093  -51.4038  -55.4055 C.3       4 UNK         0.0263 
     53 CB         30.0882  -52.9192  -55.6778 C.3       4 UNK        -0.1967 
     54 N          30.4923  -51.1236  -54.0553 N.am      4 UNK        -0.4237 
     55 C          29.7221  -51.0613  -52.9637 C.2       3 UNK         0.4908 
     56 O          28.5069  -51.2620  -52.9706 O.2       3 UNK        -0.5102 
     57 CA         30.4139  -50.7261  -51.6270 C.3       3 UNK         0.0241 
     58 CB         30.6507  -52.0116  -50.8169 C.3       3 UNK        -0.1971 
     59 N          31.6786  -49.9810  -51.7220 N.am      3 UNK        -0.4139 
     60 C          31.8259  -48.7765  -52.2895 C.2       2 UNK         0.5016 
     61 O          30.9490  -48.2174  -52.9475 O.2       2 UNK        -0.5319 
     62 CA         33.1803  -48.0837  -52.1139 C.3       2 UNK         0.0286 
     63 CB         34.1674  -48.4940  -53.2221 C.3       2 UNK        -0.1963 
     64 N          32.9456  -46.6412  -52.1278 N.am      2 UNK        -0.4790 
     65 C          33.7507  -45.7057  -51.6150 C.2       1 UNK         0.5024 
     66 O          34.8670  -45.9510  -51.1552 O.2       1 UNK        -0.4888 
     67 H67        28.9705  -45.2135  -50.1471 H         1 UNK         0.0892 
     68 H68        29.9296  -44.0311  -49.2621 H         1 UNK         0.0892 
     69 H69        28.9367  -43.5115  -50.6230 H         1 UNK         0.0892 
     70 H70        32.0312  -43.7616  -49.8985 H         1 UNK         0.3107 
     71 H71        33.9255  -43.7053  -50.9431 H         1 UNK         0.0773 
     72 H72        32.5513  -44.1159  -53.6386 H         1 UNK         0.0680 
     73 H73        34.2079  -43.6227  -53.3843 H         1 UNK         0.0680 
     74 H74        34.3086  -41.2908  -54.5837 H         1 UNK         0.0650 
     75 H75        32.9818  -40.1553  -54.5863 H         1 UNK         0.0650 
     76 H76        34.1875  -43.3605  -55.8692 H         1 UNK         0.1397 
     77 H77        30.8315  -44.0353  -58.4455 H         1 UNK         0.1363 
     78 H78        30.7965  -40.7482  -55.6843 H         1 UNK         0.1355 
     79 H79        28.9170  -42.6429  -58.3805 H         1 UNK         0.0707 
     80 H80        29.4558  -40.9887  -58.2467 H         1 UNK         0.0707 
     81 H81        26.5800  -43.4496  -55.9913 H         1 UNK         0.1034 
     82 H82        28.1622  -43.9918  -56.4596 H         1 UNK         0.1034 
     83 H83        28.9751  -43.0844  -54.1372 H         1 UNK         0.0482 
     84 H84        26.9365  -44.4950  -52.0796 H         1 UNK         0.3460 
     85 H85        26.0135  -43.1003  -51.5728 H         1 UNK         0.3460 
     86 H86        29.1435  -45.1887  -53.6159 H         1 UNK         0.2989 
     87 H87        28.8773  -47.4995  -54.1506 H         1 UNK         0.0559 
     88 H88        28.4238  -46.8552  -51.8070 H         1 UNK         0.0848 
     89 H89        28.0359  -48.5488  -52.0045 H         1 UNK         0.0848 
     90 H90        26.7399  -47.3540  -51.9404 H         1 UNK         0.0848 
     91 H91        26.3163  -48.8477  -53.9139 H         1 UNK         0.3144 
     92 H92        26.1125  -50.6535  -55.5644 H         1 UNK         0.0727 
     93 H93        24.0177  -49.9184  -56.7822 H         1 UNK         0.0790 
     94 H94        24.7321  -48.3280  -57.0427 H         1 UNK         0.0790 
     95 H95        24.3603  -48.8740  -55.4136 H         1 UNK         0.0790 
     96 H96        26.6896  -49.5265  -58.2747 H         1 UNK         0.3215 
     97 H97        28.5463  -52.3831  -59.1144 H         1 UNK         0.0863 
     98 H98        27.4533  -52.0223  -61.3337 H         1 UNK         0.0808 
     99 H99        26.1198  -51.1770  -60.5478 H         1 UNK         0.0808 
    100 H100       26.4038  -52.8747  -60.2126 H         1 UNK         0.0808 
    101 H101       29.6507  -50.4960  -59.3186 H         1 UNK         0.3118 
    102 H102       30.0621  -48.3125  -60.6458 H         1 UNK         0.0546 
    103 H103       28.1308  -46.3388  -59.2975 H         1 UNK         0.0828 
    104 H104       28.3203  -46.5663  -61.0324 H         1 UNK         0.0828 
    105 H105       29.6466  -45.9078  -60.0874 H         1 UNK         0.0828 
    106 H106       29.4225  -48.1860  -57.7312 H         1 UNK         0.3005 
    107 H107       32.8303  -48.8414  -56.9723 H         1 UNK         0.1257 
    108 H108       31.2442  -46.2798  -56.4669 H         1 UNK         0.0775 
    109 H109       31.9598  -47.0942  -55.1191 H         1 UNK         0.0775 
    110 H110       34.2362  -44.6972  -58.2574 H         1 UNK         0.0840 
    111 H111       32.7198  -45.4853  -58.6085 H         1 UNK         0.0840 
    112 H112       30.6744  -48.9274  -55.2310 H         1 UNK         0.2987 
    113 H113       28.9659  -51.0973  -55.4915 H         1 UNK         0.0785 
    114 H114       29.7089  -53.1611  -56.6713 H         1 UNK         0.0798 
    115 H115       29.4874  -53.4805  -54.9621 H         1 UNK         0.0798 
    116 H116       31.1134  -53.2861  -55.6186 H         1 UNK         0.0798 
    117 H117       31.4796  -50.9301  -53.9617 H         1 UNK         0.3079 
    118 H118       29.7192  -50.0984  -51.0655 H         1 UNK         0.0794 
    119 H119       31.0202  -51.7896  -49.8156 H         1 UNK         0.0786 
    120 H120       31.3719  -52.6685  -51.3050 H         1 UNK         0.0786 
    121 H121       29.7246  -52.5763  -50.6984 H         1 UNK         0.0786 
    122 H122       32.4649  -50.3794  -51.2286 H         1 UNK         0.3032 
    123 H123       33.5900  -48.3604  -51.1398 H         1 UNK         0.1094 
    124 H124       33.7831  -48.2634  -54.2144 H         1 UNK         0.0794 
    125 H125       35.1261  -47.9874  -53.1117 H         1 UNK         0.0794 
    126 H126       34.3651  -49.5660  -53.1921 H         1 UNK         0.0794 
    127 H127       32.0151  -46.3640  -52.4407 H         1 UNK         0.3016 
@<TRIPOS>BOND
     1    1    2 1    
     2    1   67 1    
     3    1   68 1    
     4    1   69 1    
     5    2    3 2    
     6    2    4 am   BACKBONE|DICT|INTERRES
     7    4    5 1    
     8    4   70 1    
     9    5    6 1    
    10    5   65 1    
    11    5   71 1    
    12    6    7 1    
    13    6   72 1    
    14    6   73 1    
    15    7    8 1    
    16    8    9 1    
    17    8   74 1    
    18    8   75 1    
    19    9   10 ar   
    20    9   14 ar   
    21   10   11 ar   
    22   10   76 1    
    23   11   12 ar   
    24   11   48 1    
    25   12   13 ar   
    26   12   77 1    
    27   13   14 ar   
    28   13   15 1    
    29   14   78 1    
    30   15   16 1    
    31   15   79 1    
    32   15   80 1    
    33   16   17 1    
    34   17   18 1    
    35   17   81 1    
    36   17   82 1    
    37   18   19 1    
    38   18   22 1    
    39   18   83 1    
    40   19   20 am   BACKBONE|DICT|INTERRES
    41   19   21 2    
    42   20   84 1    
    43   20   85 1    
    44   22   23 am   BACKBONE|DICT|INTERRES
    45   22   86 1    
    46   23   24 2    
    47   23   25 1    
    48   25   26 1    
    49   25   27 1    
    50   25   87 1    
    51   26   88 1    
    52   26   89 1    
    53   26   90 1    
    54   27   28 am   BACKBONE|DICT|INTERRES
    55   27   91 1    
    56   28   29 2    
    57   28   30 1    
    58   30   31 1    
    59   30   32 1    
    60   30   92 1    
    61   31   93 1    
    62   31   94 1    
    63   31   95 1    
    64   32   33 am   BACKBONE|DICT|INTERRES
    65   32   96 1    
    66   33   34 2    
    67   33   35 1    
    68   35   36 1    
    69   35   37 1    
    70   35   97 1    
    71   36   98 1    
    72   36   99 1    
    73   36  100 1    
    74   37   38 am   BACKBONE|DICT|INTERRES
    75   37  101 1    
    76   38   39 2    
    77   38   40 1    
    78   40   41 1    
    79   40   42 1    
    80   40  102 1    
    81   41  103 1    
    82   41  104 1    
    83   41  105 1    
    84   42   43 am   BACKBONE|DICT|INTERRES
    85   42  106 1    
    86   43   44 2    
    87   43   45 1    
    88   45   46 1    
    89   45   49 1    
    90   45  107 1    
    91   46   47 1    
    92   46  108 1    
    93   46  109 1    
    94   47   48 1    
    95   48  110 1    
    96   48  111 1    
    97   49   50 am   BACKBONE|DICT|INTERRES
    98   49  112 1    
    99   50   51 2    
   100   50   52 1    
   101   52   53 1    
   102   52   54 1    
   103   52  113 1    
   104   53  114 1    
   105   53  115 1    
   106   53  116 1    
   107   54   55 am   BACKBONE|DICT|INTERRES
   108   54  117 1    
   109   55   56 2    
   110   55   57 1    
   111   57   58 1    
   112   57   59 1    
   113   57  118 1    
   114   58  119 1    
   115   58  120 1    
   116   58  121 1    
   117   59   60 am   BACKBONE|DICT|INTERRES
   118   59  122 1    
   119   60   61 2    
   120   60   62 1    
   121   62   63 1    
   122   62   64 1    
   123   62  123 1    
   124   63  124 1    
   125   63  125 1    
   126   63  126 1    
   127   64   65 am   BACKBONE|DICT|INTERRES
   128   64  127 1    
   129   65   66 2    
@<TRIPOS>SUBSTRUCTURE
     1 UNK         1 GROUP             0       ****    0 ROOT    
