@<TRIPOS>MOLECULE
3R134
127   129    1
SMALL
USER_CHARGES


@<TRIPOS>ATOM
      1 CA         37.2198  -45.4905  -55.4481 C.3       0 UNK        -0.1968 
      2 C          35.8463  -45.5085  -54.7940 C.2       0 UNK         0.4852 
      3 O          35.0129  -46.3431  -55.1462 O.2       0 UNK        -0.5359 
      4 N          35.6071  -44.6005  -53.8400 N.am      1 UNK        -0.4300 
      5 CA         34.3534  -44.4510  -53.0923 C.3       1 UNK         0.0863 
      6 C6         34.1859  -42.9999  -52.5616 C.3       11 UNK        -0.0953 
      7 S7         34.0631  -41.7524  -53.8886 S.3       11 UNK        -0.2369 
      8 C8         32.3051  -41.2781  -53.7992 C.3       11 UNK         0.0226 
      9 C9         31.4145  -42.3107  -54.4730 C.ar      11 UNK        -0.0699 
     10 C10        30.9544  -43.4204  -53.7594 C.ar      11 UNK        -0.0804 
     11 C11        30.1900  -44.4015  -54.3931 C.ar      11 UNK        -0.0871 
     12 C12        29.8563  -44.2493  -55.7426 C.ar      11 UNK        -0.1008 
     13 C13        30.2705  -43.1202  -56.4596 C.ar      11 UNK        -0.0735 
     14 C14        31.0601  -42.1613  -55.8175 C.ar      11 UNK        -0.0945 
     15 C15        29.9160  -42.9343  -57.9343 C.3       11 UNK         0.0169 
     16 S16        28.2426  -43.5069  -58.3876 S.3       11 UNK        -0.2669 
     17 C17        27.1583  -42.3148  -57.5209 C.3       11 UNK        -0.0850 
     18 CA         26.7479  -42.7547  -56.0831 C.3       10 UNK         0.0855 
     19 C          25.8152  -41.7224  -55.3794 C.2       10 UNK         0.5543 
     20 N          24.9416  -42.1389  -54.4709 N.am      10 UNK        -0.7343 
     21 O          25.9031  -40.5234  -55.6337 O.2       10 UNK        -0.5027 
     22 N          26.3068  -44.1611  -56.0105 N.am      10 UNK        -0.4495 
     23 C          25.2001  -44.6782  -56.5575 C.2       10 UNK         0.4903 
     24 O          24.3390  -44.0196  -57.1434 O.2       10 UNK        -0.4860 
     25 CA         25.0651  -46.2053  -56.4284 C.3       9 UNK         0.0227 
     26 CB         23.6176  -46.7039  -56.6228 C.3       9 UNK        -0.1964 
     27 N          25.9920  -46.9078  -57.3237 N.am      9 UNK        -0.4231 
     28 C          26.0165  -46.8920  -58.6675 C.2       9 UNK         0.5014 
     29 O          25.2435  -46.2468  -59.3763 O.2       9 UNK        -0.5270 
     30 CA         27.0647  -47.7919  -59.3445 C.3       8 UNK         0.0284 
     31 CB         28.4114  -47.0631  -59.4888 C.3       8 UNK        -0.1977 
     32 N          27.2513  -49.0449  -58.6086 N.am      8 UNK        -0.4342 
     33 C          26.4438  -50.1112  -58.7112 C.2       8 UNK         0.5039 
     34 O          25.5153  -50.1908  -59.5165 O.2       8 UNK        -0.5547 
     35 CA         26.7052  -51.2895  -57.7548 C.3       7 UNK         0.0281 
     36 CB         27.6251  -52.3275  -58.4175 C.3       7 UNK        -0.1963 
     37 N          27.2840  -50.8620  -56.4783 N.am      7 UNK        -0.4444 
     38 C          26.5913  -50.2346  -55.5137 C.2       7 UNK         0.5104 
     39 O          25.3763  -50.0446  -55.5629 O.2       7 UNK        -0.5100 
     40 CA         27.3780  -49.6937  -54.3025 C.3       6 UNK         0.0396 
     41 CB         27.2830  -50.6703  -53.1207 C.3       6 UNK        -0.1801 
     42 N          28.7893  -49.4192  -54.5817 N.am      6 UNK        -0.4747 
     43 C          29.2470  -48.5594  -55.5055 C.2       6 UNK         0.5012 
     44 O          28.5087  -47.8399  -56.1796 O.2       6 UNK        -0.5003 
     45 CA         30.7722  -48.5382  -55.7623 C.3       5 UNK         0.0782 
     46 C46        31.4734  -47.2896  -55.1702 C.3       11 UNK        -0.0868 
     47 S47        31.0588  -46.8709  -53.4349 S.3       11 UNK        -0.2515 
     48 C48        29.7330  -45.6297  -53.6202 C.3       11 UNK         0.0199 
     49 N          31.4493  -49.7837  -55.3810 N.am      5 UNK        -0.4607 
     50 C          31.1578  -50.9941  -55.8825 C.2       4 UNK         0.5031 
     51 O          30.3025  -51.1755  -56.7498 O.2       4 UNK        -0.5119 
     52 CA         31.8945  -52.2165  -55.3087 C.3       4 UNK         0.0263 
     53 CB         32.9253  -52.7416  -56.3208 C.3       4 UNK        -0.1967 
     54 N          32.5595  -51.9926  -54.0225 N.am      4 UNK        -0.4237 
     55 C          31.9737  -51.6258  -52.8735 C.2       3 UNK         0.4908 
     56 O          30.7711  -51.3815  -52.7601 O.2       3 UNK        -0.5102 
     57 CA         32.8892  -51.5100  -51.6401 C.3       3 UNK         0.0241 
     58 CB         34.1844  -52.3476  -51.7497 C.3       3 UNK        -0.1971 
     59 N          33.2235  -50.1253  -51.2866 N.am      3 UNK        -0.4139 
     60 C          33.7438  -49.1728  -52.0759 C.2       2 UNK         0.5016 
     61 O          33.9186  -49.2839  -53.2928 O.2       2 UNK        -0.5319 
     62 CA         34.2020  -47.9003  -51.3524 C.3       2 UNK         0.0286 
     63 CB         35.5598  -48.1317  -50.6598 C.3       2 UNK        -0.1963 
     64 N          34.3121  -46.7867  -52.2925 N.am      2 UNK        -0.4790 
     65 C          34.2618  -45.4934  -51.9524 C.2       1 UNK         0.5024 
     66 O          34.1652  -45.1157  -50.7824 O.2       1 UNK        -0.4888 
     67 H67        37.8543  -44.7015  -55.0447 H         1 UNK         0.0892 
     68 H68        37.1210  -45.3304  -56.5214 H         1 UNK         0.0892 
     69 H69        37.7222  -46.4445  -55.2903 H         1 UNK         0.0892 
     70 H70        36.3371  -43.9507  -53.5857 H         1 UNK         0.3107 
     71 H71        33.5210  -44.6580  -53.7686 H         1 UNK         0.0773 
     72 H72        35.0323  -42.7293  -51.9276 H         1 UNK         0.0680 
     73 H73        33.3059  -42.9183  -51.9224 H         1 UNK         0.0680 
     74 H74        32.0061  -41.1317  -52.7603 H         1 UNK         0.0650 
     75 H75        32.1823  -40.3096  -54.2863 H         1 UNK         0.0650 
     76 H76        31.2141  -43.5398  -52.7171 H         1 UNK         0.1397 
     77 H77        29.2739  -45.0150  -56.2368 H         1 UNK         0.1363 
     78 H78        31.4125  -41.2998  -56.3685 H         1 UNK         0.1355 
     79 H79        30.6415  -43.4886  -58.5308 H         1 UNK         0.0707 
     80 H80        30.0145  -41.8871  -58.2243 H         1 UNK         0.0707 
     81 H81        26.2653  -42.1770  -58.1329 H         1 UNK         0.1034 
     82 H82        27.6551  -41.3434  -57.4954 H         1 UNK         0.1034 
     83 H83        27.6497  -42.7162  -55.4749 H         1 UNK         0.0482 
     84 H84        24.3471  -41.4674  -54.0112 H         1 UNK         0.3460 
     85 H85        24.8634  -43.1187  -54.2512 H         1 UNK         0.3460 
     86 H86        26.9463  -44.7872  -55.5459 H         1 UNK         0.2989 
     87 H87        25.3620  -46.4710  -55.4124 H         1 UNK         0.0559 
     88 H88        23.2339  -46.4761  -57.6176 H         1 UNK         0.0848 
     89 H89        22.9461  -46.2350  -55.9028 H         1 UNK         0.0848 
     90 H90        23.5498  -47.7822  -56.4769 H         1 UNK         0.0848 
     91 H91        26.7466  -47.4075  -56.8618 H         1 UNK         0.3144 
     92 H92        26.7058  -48.0266  -60.3491 H         1 UNK         0.0727 
     93 H93        29.1579  -47.6965  -59.9679 H         1 UNK         0.0790 
     94 H94        28.8107  -46.7390  -58.5277 H         1 UNK         0.0790 
     95 H95        28.3003  -46.1708  -60.1062 H         1 UNK         0.0790 
     96 H96        27.9614  -49.0431  -57.8884 H         1 UNK         0.3215 
     97 H97        25.7453  -51.7698  -57.5519 H         1 UNK         0.0863 
     98 H98        27.8060  -53.1776  -57.7595 H         1 UNK         0.0808 
     99 H99        28.5913  -51.8997  -58.6870 H         1 UNK         0.0808 
    100 H100       27.1761  -52.7155  -59.3328 H         1 UNK         0.0808 
    101 H101       28.2867  -50.9809  -56.3704 H         1 UNK         0.3118 
    102 H102       26.9135  -48.7507  -54.0071 H         1 UNK         0.0546 
    103 H103       26.2428  -50.8776  -52.8659 H         1 UNK         0.0828 
    104 H104       27.7594  -50.2621  -52.2292 H         1 UNK         0.0828 
    105 H105       27.7614  -51.6242  -53.3472 H         1 UNK         0.0828 
    106 H106       29.4684  -49.9661  -54.0647 H         1 UNK         0.3005 
    107 H107       30.8792  -48.4715  -56.8476 H         1 UNK         0.1257 
    108 H108       31.2820  -46.4339  -55.8130 H         1 UNK         0.0775 
    109 H109       32.5549  -47.4227  -55.2209 H         1 UNK         0.0775 
    110 H110       28.8641  -46.0823  -54.0977 H         1 UNK         0.0840 
    111 H111       29.3995  -45.3276  -52.6263 H         1 UNK         0.0840 
    112 H112       32.1652  -49.7087  -54.6670 H         1 UNK         0.2987 
    113 H113       31.1422  -52.9923  -55.1528 H         1 UNK         0.0785 
    114 H114       32.4570  -52.9513  -57.2838 H         1 UNK         0.0798 
    115 H115       33.3829  -53.6699  -55.9782 H         1 UNK         0.0798 
    116 H116       33.7219  -52.0174  -56.4968 H         1 UNK         0.0798 
    117 H117       33.5613  -52.1189  -54.0107 H         1 UNK         0.3079 
    118 H118       32.3133  -51.9113  -50.8046 H         1 UNK         0.0794 
    119 H119       34.8737  -51.9516  -52.4965 H         1 UNK         0.0786 
    120 H120       33.9661  -53.3843  -52.0106 H         1 UNK         0.0786 
    121 H121       34.7151  -52.3666  -50.7976 H         1 UNK         0.0786 
    122 H122       33.0919  -49.8989  -50.3105 H         1 UNK         0.3032 
    123 H123       33.4467  -47.6518  -50.6028 H         1 UNK         0.1094 
    124 H124       35.8740  -47.2564  -50.0911 H         1 UNK         0.0794 
    125 H125       35.5113  -48.9666  -49.9596 H         1 UNK         0.0794 
    126 H126       36.3434  -48.3583  -51.3839 H         1 UNK         0.0794 
    127 H127       34.3725  -47.0441  -53.2754 H         1 UNK         0.3016 
@<TRIPOS>BOND
     1    1    2 1    
     2    1   67 1    
     3    1   68 1    
     4    1   69 1    
     5    2    3 2    
     6    2    4 am   BACKBONE|DICT|INTERRES
     7    4    5 1    
     8    4   70 1    
     9    5    6 1    
    10    5   65 1    
    11    5   71 1    
    12    6    7 1    
    13    6   72 1    
    14    6   73 1    
    15    7    8 1    
    16    8    9 1    
    17    8   74 1    
    18    8   75 1    
    19    9   10 ar   
    20    9   14 ar   
    21   10   11 ar   
    22   10   76 1    
    23   11   12 ar   
    24   11   48 1    
    25   12   13 ar   
    26   12   77 1    
    27   13   14 ar   
    28   13   15 1    
    29   14   78 1    
    30   15   16 1    
    31   15   79 1    
    32   15   80 1    
    33   16   17 1    
    34   17   18 1    
    35   17   81 1    
    36   17   82 1    
    37   18   19 1    
    38   18   22 1    
    39   18   83 1    
    40   19   20 am   BACKBONE|DICT|INTERRES
    41   19   21 2    
    42   20   84 1    
    43   20   85 1    
    44   22   23 am   BACKBONE|DICT|INTERRES
    45   22   86 1    
    46   23   24 2    
    47   23   25 1    
    48   25   26 1    
    49   25   27 1    
    50   25   87 1    
    51   26   88 1    
    52   26   89 1    
    53   26   90 1    
    54   27   28 am   BACKBONE|DICT|INTERRES
    55   27   91 1    
    56   28   29 2    
    57   28   30 1    
    58   30   31 1    
    59   30   32 1    
    60   30   92 1    
    61   31   93 1    
    62   31   94 1    
    63   31   95 1    
    64   32   33 am   BACKBONE|DICT|INTERRES
    65   32   96 1    
    66   33   34 2    
    67   33   35 1    
    68   35   36 1    
    69   35   37 1    
    70   35   97 1    
    71   36   98 1    
    72   36   99 1    
    73   36  100 1    
    74   37   38 am   BACKBONE|DICT|INTERRES
    75   37  101 1    
    76   38   39 2    
    77   38   40 1    
    78   40   41 1    
    79   40   42 1    
    80   40  102 1    
    81   41  103 1    
    82   41  104 1    
    83   41  105 1    
    84   42   43 am   BACKBONE|DICT|INTERRES
    85   42  106 1    
    86   43   44 2    
    87   43   45 1    
    88   45   46 1    
    89   45   49 1    
    90   45  107 1    
    91   46   47 1    
    92   46  108 1    
    93   46  109 1    
    94   47   48 1    
    95   48  110 1    
    96   48  111 1    
    97   49   50 am   BACKBONE|DICT|INTERRES
    98   49  112 1    
    99   50   51 2    
   100   50   52 1    
   101   52   53 1    
   102   52   54 1    
   103   52  113 1    
   104   53  114 1    
   105   53  115 1    
   106   53  116 1    
   107   54   55 am   BACKBONE|DICT|INTERRES
   108   54  117 1    
   109   55   56 2    
   110   55   57 1    
   111   57   58 1    
   112   57   59 1    
   113   57  118 1    
   114   58  119 1    
   115   58  120 1    
   116   58  121 1    
   117   59   60 am   BACKBONE|DICT|INTERRES
   118   59  122 1    
   119   60   61 2    
   120   60   62 1    
   121   62   63 1    
   122   62   64 1    
   123   62  123 1    
   124   63  124 1    
   125   63  125 1    
   126   63  126 1    
   127   64   65 am   BACKBONE|DICT|INTERRES
   128   64  127 1    
   129   65   66 2    
@<TRIPOS>SUBSTRUCTURE
     1 UNK         1 GROUP             0       ****    0 ROOT    
