@<TRIPOS>MOLECULE
3R134
127   129    1
SMALL
USER_CHARGES


@<TRIPOS>ATOM
      1 CA         30.5937  -46.0389  -51.9969 C.3       0 UNK        -0.1968 
      2 C          32.0010  -45.7849  -51.4844 C.2       0 UNK         0.4852 
      3 O          32.3277  -46.2010  -50.3723 O.2       0 UNK        -0.5359 
      4 N          32.8348  -45.1063  -52.2838 N.am      1 UNK        -0.4300 
      5 CA         34.2206  -44.7612  -51.9411 C.3       1 UNK         0.0863 
      6 C6         34.7825  -43.6563  -52.8688 C.3       11 UNK        -0.0953 
      7 S7         33.9319  -42.0642  -52.6040 S.3       11 UNK        -0.2369 
      8 C8         33.3100  -41.6613  -54.2672 C.3       11 UNK         0.0226 
      9 C9         32.1458  -42.5452  -54.6940 C.ar      11 UNK        -0.0699 
     10 C10        32.2595  -43.3626  -55.8236 C.ar      11 UNK        -0.0804 
     11 C11        31.1781  -44.1414  -56.2457 C.ar      11 UNK        -0.0871 
     12 C12        29.9839  -44.1099  -55.5226 C.ar      11 UNK        -0.1008 
     13 C13        29.8527  -43.2884  -54.4012 C.ar      11 UNK        -0.0735 
     14 C14        30.9369  -42.5085  -53.9896 C.ar      11 UNK        -0.0945 
     15 C15        28.5349  -43.2489  -53.6422 C.3       11 UNK         0.0169 
     16 S16        27.4639  -41.8648  -54.1607 S.3       11 UNK        -0.2669 
     17 C17        27.2265  -42.1600  -55.9497 C.3       11 UNK        -0.0850 
     18 CA         26.2626  -43.3390  -56.2593 C.3       10 UNK         0.0855 
     19 C          24.7764  -42.8812  -56.2591 C.2       10 UNK         0.5543 
     20 N          24.1283  -42.8726  -55.1028 N.am      10 UNK        -0.7343 
     21 O          24.2233  -42.4966  -57.2880 O.2       10 UNK        -0.5027 
     22 N          26.6547  -44.0246  -57.5012 N.am      10 UNK        -0.4495 
     23 C          26.1688  -45.2049  -57.9079 C.2       10 UNK         0.4903 
     24 O          25.3641  -45.8698  -57.2566 O.2       10 UNK        -0.4860 
     25 CA         26.6501  -45.7522  -59.2613 C.3       9 UNK         0.0227 
     26 CB         27.7266  -44.8972  -59.9643 C.3       9 UNK        -0.1964 
     27 N          27.1446  -47.1101  -59.0524 N.am      9 UNK        -0.4231 
     28 C          27.0608  -48.1196  -59.9256 C.2       9 UNK         0.5014 
     29 O          26.5768  -48.0154  -61.0540 O.2       9 UNK        -0.5270 
     30 CA         27.6138  -49.4815  -59.4664 C.3       8 UNK         0.0284 
     31 CB         29.1424  -49.5245  -59.6269 C.3       8 UNK        -0.1977 
     32 N          27.2566  -49.8166  -58.0847 N.am      8 UNK        -0.4342 
     33 C          26.0136  -50.0918  -57.6598 C.2       8 UNK         0.5039 
     34 O          25.0283  -50.1286  -58.3978 O.2       8 UNK        -0.5547 
     35 CA         25.8363  -50.3733  -56.1593 C.3       7 UNK         0.0281 
     36 CB         26.1324  -51.8486  -55.8412 C.3       7 UNK        -0.1963 
     37 N          26.7076  -49.5036  -55.3661 N.am      7 UNK        -0.4444 
     38 C          26.3288  -48.3145  -54.8759 C.2       7 UNK         0.5104 
     39 O          25.1616  -47.9238  -54.8760 O.2       7 UNK        -0.5100 
     40 CA         27.4122  -47.4006  -54.2656 C.3       6 UNK         0.0396 
     41 CB         27.2442  -47.3184  -52.7395 C.3       6 UNK        -0.1801 
     42 N          28.7912  -47.7903  -54.5856 N.am      6 UNK        -0.4747 
     43 C          29.3567  -47.6827  -55.7982 C.2       6 UNK         0.5012 
     44 O          28.7758  -47.2072  -56.7715 O.2       6 UNK        -0.5003 
     45 CA         30.7734  -48.2778  -55.9725 C.3       5 UNK         0.0782 
     46 C46        31.8757  -47.2051  -55.7751 C.3       11 UNK        -0.0868 
     47 S47        32.4173  -46.4063  -57.3218 S.3       11 UNK        -0.2515 
     48 C48        31.2794  -44.9968  -57.5001 C.3       11 UNK         0.0199 
     49 N          31.0008  -49.4669  -55.1353 N.am      5 UNK        -0.4607 
     50 C          30.2631  -50.5872  -55.1994 C.2       4 UNK         0.5031 
     51 O          29.3021  -50.7085  -55.9621 O.2       4 UNK        -0.5119 
     52 CA         30.6519  -51.7432  -54.2638 C.3       4 UNK         0.0263 
     53 CB         30.0169  -53.0859  -54.6723 C.3       4 UNK        -0.1967 
     54 N          32.1050  -51.8771  -54.2291 N.am      4 UNK        -0.4237 
     55 C          32.8545  -52.0098  -53.1286 C.2       3 UNK         0.4908 
     56 O          32.3995  -52.1379  -51.9908 O.2       3 UNK        -0.5102 
     57 CA         34.3839  -51.9606  -53.3264 C.3       3 UNK         0.0241 
     58 CB         34.8309  -52.1982  -54.7877 C.3       3 UNK        -0.1971 
     59 N          34.9927  -50.7186  -52.8279 N.am      3 UNK        -0.4139 
     60 C          34.5846  -49.4600  -53.0534 C.2       2 UNK         0.5016 
     61 O          33.5383  -49.1557  -53.6340 O.2       2 UNK        -0.5319 
     62 CA         35.5339  -48.3479  -52.5911 C.3       2 UNK         0.0286 
     63 CB         36.7458  -48.2391  -53.5380 C.3       2 UNK        -0.1963 
     64 N          34.8041  -47.0824  -52.5696 N.am      2 UNK        -0.4790 
     65 C          35.1667  -45.9828  -51.8975 C.2       1 UNK         0.5024 
     66 O          36.2077  -45.9065  -51.2426 O.2       1 UNK        -0.4888 
     67 H67        29.8758  -45.4862  -51.3918 H         1 UNK         0.0892 
     68 H68        30.4723  -45.7317  -53.0340 H         1 UNK         0.0892 
     69 H69        30.3579  -47.1001  -51.9258 H         1 UNK         0.0892 
     70 H70        32.5037  -44.7460  -53.1679 H         1 UNK         0.3107 
     71 H71        34.2108  -44.3629  -50.9238 H         1 UNK         0.0773 
     72 H72        34.7126  -43.9566  -53.9159 H         1 UNK         0.0680 
     73 H73        35.8426  -43.4852  -52.6713 H         1 UNK         0.0680 
     74 H74        34.1333  -41.7200  -54.9808 H         1 UNK         0.0650 
     75 H75        32.9777  -40.6224  -54.2706 H         1 UNK         0.0650 
     76 H76        33.1832  -43.3849  -56.3859 H         1 UNK         0.1397 
     77 H77        29.1416  -44.7053  -55.8472 H         1 UNK         0.1363 
     78 H78        30.8386  -41.8650  -53.1258 H         1 UNK         0.1355 
     79 H79        28.7340  -43.1539  -52.5737 H         1 UNK         0.0707 
     80 H80        27.9991  -44.1910  -53.7618 H         1 UNK         0.0707 
     81 H81        26.8713  -41.2347  -56.4081 H         1 UNK         0.1034 
     82 H82        28.2059  -42.3219  -56.3981 H         1 UNK         0.1034 
     83 H83        26.3695  -44.0880  -55.4727 H         1 UNK         0.0482 
     84 H84        23.1688  -42.5649  -55.0787 H         1 UNK         0.3460 
     85 H85        24.5877  -43.1517  -54.2501 H         1 UNK         0.3460 
     86 H86        27.2771  -43.5224  -58.1156 H         1 UNK         0.2989 
     87 H87        25.7682  -45.7891  -59.9040 H         1 UNK         0.0559 
     88 H88        27.3604  -43.8922  -60.1774 H         1 UNK         0.0848 
     89 H89        28.0098  -45.3363  -60.9211 H         1 UNK         0.0848 
     90 H90        28.6327  -44.8078  -59.3657 H         1 UNK         0.0848 
     91 H91        27.5775  -47.2776  -58.1445 H         1 UNK         0.3144 
     92 H92        27.1845  -50.2498  -60.1131 H         1 UNK         0.0727 
     93 H93        29.5510  -50.4854  -59.3133 H         1 UNK         0.0790 
     94 H94        29.6319  -48.7429  -59.0459 H         1 UNK         0.0790 
     95 H95        29.4257  -49.3760  -60.6697 H         1 UNK         0.0790 
     96 H96        28.0153  -49.8756  -57.4159 H         1 UNK         0.3215 
     97 H97        24.7910  -50.1843  -55.9045 H         1 UNK         0.0863 
     98 H98        26.0415  -52.0514  -54.7741 H         1 UNK         0.0808 
     99 H99        27.1329  -52.1445  -56.1560 H         1 UNK         0.0808 
    100 H100       25.4277  -52.5022  -56.3568 H         1 UNK         0.0808 
    101 H101       27.6856  -49.7676  -55.3227 H         1 UNK         0.3118 
    102 H102       27.2427  -46.4033  -54.6768 H         1 UNK         0.0546 
    103 H103       27.4995  -48.2593  -52.2511 H         1 UNK         0.0828 
    104 H104       26.2137  -47.0823  -52.4696 H         1 UNK         0.0828 
    105 H105       27.8644  -46.5325  -52.3132 H         1 UNK         0.0828 
    106 H106       29.3234  -48.2307  -53.8495 H         1 UNK         0.3005 
    107 H107       30.8305  -48.6371  -57.0017 H         1 UNK         0.1257 
    108 H108       32.7853  -47.6715  -55.4056 H         1 UNK         0.0775 
    109 H109       31.6134  -46.4695  -55.0153 H         1 UNK         0.0775 
    110 H110       31.6195  -44.3751  -58.3293 H         1 UNK         0.0840 
    111 H111       30.2998  -45.3729  -57.7929 H         1 UNK         0.0840 
    112 H112       31.8008  -49.4319  -54.5069 H         1 UNK         0.2987 
    113 H113       30.2783  -51.4733  -53.2739 H         1 UNK         0.0785 
    114 H114       28.9282  -53.0292  -54.6445 H         1 UNK         0.0798 
    115 H115       30.3142  -53.8864  -53.9948 H         1 UNK         0.0798 
    116 H116       30.3053  -53.3768  -55.6830 H         1 UNK         0.0798 
    117 H117       32.5802  -51.7449  -55.1113 H         1 UNK         0.3079 
    118 H118       34.7908  -52.7731  -52.7222 H         1 UNK         0.0794 
    119 H119       35.9151  -52.2940  -54.8500 H         1 UNK         0.0786 
    120 H120       34.5406  -51.3795  -55.4475 H         1 UNK         0.0786 
    121 H121       34.4099  -53.1216  -55.1883 H         1 UNK         0.0786 
    122 H122       35.8463  -50.8461  -52.3022 H         1 UNK         0.3032 
    123 H123       35.8715  -48.5821  -51.5788 H         1 UNK         0.1094 
    124 H124       36.4374  -47.9940  -54.5552 H         1 UNK         0.0794 
    125 H125       37.4455  -47.4714  -53.2077 H         1 UNK         0.0794 
    126 H126       37.3002  -49.1773  -53.5824 H         1 UNK         0.0794 
    127 H127       33.9145  -47.1108  -53.0519 H         1 UNK         0.3016 
@<TRIPOS>BOND
     1    1    2 1    
     2    1   67 1    
     3    1   68 1    
     4    1   69 1    
     5    2    3 2    
     6    2    4 am   BACKBONE|DICT|INTERRES
     7    4    5 1    
     8    4   70 1    
     9    5    6 1    
    10    5   65 1    
    11    5   71 1    
    12    6    7 1    
    13    6   72 1    
    14    6   73 1    
    15    7    8 1    
    16    8    9 1    
    17    8   74 1    
    18    8   75 1    
    19    9   10 ar   
    20    9   14 ar   
    21   10   11 ar   
    22   10   76 1    
    23   11   12 ar   
    24   11   48 1    
    25   12   13 ar   
    26   12   77 1    
    27   13   14 ar   
    28   13   15 1    
    29   14   78 1    
    30   15   16 1    
    31   15   79 1    
    32   15   80 1    
    33   16   17 1    
    34   17   18 1    
    35   17   81 1    
    36   17   82 1    
    37   18   19 1    
    38   18   22 1    
    39   18   83 1    
    40   19   20 am   BACKBONE|DICT|INTERRES
    41   19   21 2    
    42   20   84 1    
    43   20   85 1    
    44   22   23 am   BACKBONE|DICT|INTERRES
    45   22   86 1    
    46   23   24 2    
    47   23   25 1    
    48   25   26 1    
    49   25   27 1    
    50   25   87 1    
    51   26   88 1    
    52   26   89 1    
    53   26   90 1    
    54   27   28 am   BACKBONE|DICT|INTERRES
    55   27   91 1    
    56   28   29 2    
    57   28   30 1    
    58   30   31 1    
    59   30   32 1    
    60   30   92 1    
    61   31   93 1    
    62   31   94 1    
    63   31   95 1    
    64   32   33 am   BACKBONE|DICT|INTERRES
    65   32   96 1    
    66   33   34 2    
    67   33   35 1    
    68   35   36 1    
    69   35   37 1    
    70   35   97 1    
    71   36   98 1    
    72   36   99 1    
    73   36  100 1    
    74   37   38 am   BACKBONE|DICT|INTERRES
    75   37  101 1    
    76   38   39 2    
    77   38   40 1    
    78   40   41 1    
    79   40   42 1    
    80   40  102 1    
    81   41  103 1    
    82   41  104 1    
    83   41  105 1    
    84   42   43 am   BACKBONE|DICT|INTERRES
    85   42  106 1    
    86   43   44 2    
    87   43   45 1    
    88   45   46 1    
    89   45   49 1    
    90   45  107 1    
    91   46   47 1    
    92   46  108 1    
    93   46  109 1    
    94   47   48 1    
    95   48  110 1    
    96   48  111 1    
    97   49   50 am   BACKBONE|DICT|INTERRES
    98   49  112 1    
    99   50   51 2    
   100   50   52 1    
   101   52   53 1    
   102   52   54 1    
   103   52  113 1    
   104   53  114 1    
   105   53  115 1    
   106   53  116 1    
   107   54   55 am   BACKBONE|DICT|INTERRES
   108   54  117 1    
   109   55   56 2    
   110   55   57 1    
   111   57   58 1    
   112   57   59 1    
   113   57  118 1    
   114   58  119 1    
   115   58  120 1    
   116   58  121 1    
   117   59   60 am   BACKBONE|DICT|INTERRES
   118   59  122 1    
   119   60   61 2    
   120   60   62 1    
   121   62   63 1    
   122   62   64 1    
   123   62  123 1    
   124   63  124 1    
   125   63  125 1    
   126   63  126 1    
   127   64   65 am   BACKBONE|DICT|INTERRES
   128   64  127 1    
   129   65   66 2    
@<TRIPOS>SUBSTRUCTURE
     1 UNK         1 GROUP             0       ****    0 ROOT    
