@<TRIPOS>MOLECULE
3R134
127   129    1
SMALL
USER_CHARGES


@<TRIPOS>ATOM
      1 CA         32.2389  -47.1451  -50.3669 C.3       0 UNK        -0.1968 
      2 C          33.5360  -47.4343  -51.1079 C.2       0 UNK         0.4852 
      3 O          34.3107  -48.2904  -50.6788 O.2       0 UNK        -0.5359 
      4 N          33.7731  -46.7224  -52.2174 N.am      1 UNK        -0.4300 
      5 CA         34.9768  -46.7947  -53.0577 C.3       1 UNK         0.0863 
      6 C6         35.0421  -45.6475  -54.1025 C.3       11 UNK        -0.0953 
      7 S7         33.4405  -45.2448  -54.8914 S.3       11 UNK        -0.2369 
      8 C8         33.2618  -43.5173  -54.3496 C.3       11 UNK         0.0226 
      9 C9         31.8864  -42.9624  -54.6750 C.ar      11 UNK        -0.0699 
     10 C10        30.8900  -42.9420  -53.6958 C.ar      11 UNK        -0.0804 
     11 C11        29.6225  -42.4284  -53.9843 C.ar      11 UNK        -0.0871 
     12 C12        29.3744  -41.8854  -55.2491 C.ar      11 UNK        -0.1008 
     13 C13        30.3642  -41.8957  -56.2370 C.ar      11 UNK        -0.0735 
     14 C14        31.6162  -42.4467  -55.9455 C.ar      11 UNK        -0.0945 
     15 C15        30.1021  -41.2810  -57.6061 C.3       11 UNK         0.0169 
     16 S16        29.0392  -42.3279  -58.6533 S.3       11 UNK        -0.2669 
     17 C17        27.3637  -41.7783  -58.1766 C.3       11 UNK        -0.0850 
     18 CA         26.5576  -42.8674  -57.4227 C.3       10 UNK         0.0855 
     19 C          25.2468  -42.2613  -56.8404 C.2       10 UNK         0.5543 
     20 N          24.0687  -42.6194  -57.3360 N.am      10 UNK        -0.7343 
     21 O          25.3070  -41.4486  -55.9215 O.2       10 UNK        -0.5027 
     22 N          26.3876  -44.0783  -58.2440 N.am      10 UNK        -0.4495 
     23 C          25.9560  -45.2619  -57.7915 C.2       10 UNK         0.4903 
     24 O          25.6189  -45.4643  -56.6238 O.2       10 UNK        -0.4860 
     25 CA         25.8515  -46.4088  -58.8094 C.3       9 UNK         0.0227 
     26 CB         26.5934  -46.1716  -60.1454 C.3       9 UNK        -0.1964 
     27 N          26.2921  -47.6572  -58.1848 N.am      9 UNK        -0.4231 
     28 C          25.8472  -48.8701  -58.5358 C.2       9 UNK         0.5014 
     29 O          25.0660  -49.0570  -59.4717 O.2       9 UNK        -0.5270 
     30 CA         26.3584  -50.0723  -57.7254 C.3       8 UNK         0.0284 
     31 CB         25.8764  -51.4247  -58.3002 C.3       8 UNK        -0.1977 
     32 N          27.8175  -50.0428  -57.6341 N.am      8 UNK        -0.4342 
     33 C          28.5543  -50.7380  -56.7609 C.2       8 UNK         0.5039 
     34 O          28.0749  -51.5053  -55.9259 O.2       8 UNK        -0.5547 
     35 CA         30.0819  -50.5566  -56.8086 C.3       7 UNK         0.0281 
     36 CB         30.7144  -51.4079  -57.9276 C.3       7 UNK        -0.1963 
     37 N          30.5160  -49.1552  -56.8664 N.am      7 UNK        -0.4444 
     38 C          30.3686  -48.2651  -57.8587 C.2       7 UNK         0.5104 
     39 O          29.8603  -48.5280  -58.9503 O.2       7 UNK        -0.5100 
     40 CA         30.8013  -46.8215  -57.5265 C.3       6 UNK         0.0396 
     41 CB         30.2903  -45.7777  -58.5357 C.3       6 UNK        -0.1801 
     42 N          30.4413  -46.4093  -56.1646 N.am      6 UNK        -0.4747 
     43 C          29.2374  -46.5149  -55.5772 C.2       6 UNK         0.5012 
     44 O          28.2375  -46.9935  -56.1170 O.2       6 UNK        -0.5003 
     45 CA         29.1591  -46.0643  -54.1084 C.3       5 UNK         0.0782 
     46 C46        27.9728  -45.0917  -53.8906 C.3       11 UNK        -0.0868 
     47 S47        28.1625  -44.1586  -52.3343 S.3       11 UNK        -0.2515 
     48 C48        28.5139  -42.4688  -52.9376 C.3       11 UNK         0.0199 
     49 N          29.0791  -47.2153  -53.2024 N.am      5 UNK        -0.4607 
     50 C          29.9427  -48.2359  -53.1300 C.2       4 UNK         0.5031 
     51 O          30.9767  -48.3231  -53.8040 O.2       4 UNK        -0.5119 
     52 CA         29.5885  -49.3365  -52.1189 C.3       4 UNK         0.0263 
     53 CB         28.3031  -50.0826  -52.5144 C.3       4 UNK        -0.1967 
     54 N          30.6940  -50.2825  -52.0660 N.am      4 UNK        -0.4237 
     55 C          31.2161  -50.8549  -50.9797 C.2       3 UNK         0.4908 
     56 O          30.7223  -50.7635  -49.8555 O.2       3 UNK        -0.5102 
     57 CA         32.5444  -51.6170  -51.1575 C.3       3 UNK         0.0241 
     58 CB         32.3076  -53.1337  -51.3002 C.3       3 UNK        -0.1971 
     59 N          33.4039  -51.0864  -52.2313 N.am      3 UNK        -0.4139 
     60 C          33.2222  -51.1396  -53.5604 C.2       2 UNK         0.5016 
     61 O          32.2713  -51.7013  -54.1031 O.2       2 UNK        -0.5319 
     62 CA         34.2151  -50.3291  -54.3996 C.3       2 UNK         0.0286 
     63 CB         33.9524  -50.4013  -55.9145 C.3       2 UNK        -0.1963 
     64 N          34.1491  -48.9381  -53.9552 N.am      2 UNK        -0.4790 
     65 C          35.2178  -48.1732  -53.7074 C.2       1 UNK         0.5024 
     66 O          36.3745  -48.5272  -53.9418 O.2       1 UNK        -0.4888 
     67 H67        31.7444  -48.0740  -50.0884 H         1 UNK         0.0892 
     68 H68        32.4487  -46.5890  -49.4537 H         1 UNK         0.0892 
     69 H69        31.5459  -46.5595  -50.9708 H         1 UNK         0.0892 
     70 H70        33.0837  -46.0574  -52.5367 H         1 UNK         0.3107 
     71 H71        35.8219  -46.6525  -52.3803 H         1 UNK         0.0773 
     72 H72        35.7702  -45.8604  -54.8880 H         1 UNK         0.0680 
     73 H73        35.4258  -44.7537  -53.6086 H         1 UNK         0.0680 
     74 H74        33.4426  -43.4516  -53.2754 H         1 UNK         0.0650 
     75 H75        34.0306  -42.9090  -54.8288 H         1 UNK         0.0650 
     76 H76        31.0916  -43.3442  -52.7121 H         1 UNK         0.1397 
     77 H77        28.4061  -41.4580  -55.4669 H         1 UNK         0.1363 
     78 H78        32.3895  -42.4597  -56.7015 H         1 UNK         0.1355 
     79 H79        31.0461  -41.1299  -58.1320 H         1 UNK         0.0707 
     80 H80        29.6678  -40.2870  -57.4925 H         1 UNK         0.0707 
     81 H81        27.4408  -40.8696  -57.5771 H         1 UNK         0.1034 
     82 H82        26.8340  -41.4812  -59.0835 H         1 UNK         0.1034 
     83 H83        27.1470  -43.1700  -56.5573 H         1 UNK         0.0482 
     84 H84        23.2275  -42.2217  -56.9488 H         1 UNK         0.3460 
     85 H85        24.0126  -43.2892  -58.0860 H         1 UNK         0.3460 
     86 H86        26.6487  -43.9929  -59.2147 H         1 UNK         0.2989 
     87 H87        24.7860  -46.4935  -59.0326 H         1 UNK         0.0559 
     88 H88        26.4421  -47.0057  -60.8307 H         1 UNK         0.0848 
     89 H89        27.6673  -46.0608  -60.0062 H         1 UNK         0.0848 
     90 H90        26.2260  -45.2825  -60.6587 H         1 UNK         0.0848 
     91 H91        26.9068  -47.5458  -57.3778 H         1 UNK         0.3144 
     92 H92        25.9506  -49.9618  -56.7185 H         1 UNK         0.0727 
     93 H93        26.1729  -52.2625  -57.6696 H         1 UNK         0.0790 
     94 H94        26.2776  -51.5998  -59.2990 H         1 UNK         0.0790 
     95 H95        24.7885  -51.4553  -58.3730 H         1 UNK         0.0790 
     96 H96        28.3075  -49.4260  -58.2798 H         1 UNK         0.3215 
     97 H97        30.4640  -50.9346  -55.8595 H         1 UNK         0.0863 
     98 H98        31.8006  -51.3232  -57.9270 H         1 UNK         0.0808 
     99 H99        30.3559  -51.1215  -58.9164 H         1 UNK         0.0808 
    100 H100       30.4726  -52.4626  -57.7910 H         1 UNK         0.0808 
    101 H101       30.8664  -48.7902  -55.9872 H         1 UNK         0.3118 
    102 H102       31.8912  -46.8202  -57.5744 H         1 UNK         0.0546 
    103 H103       29.2156  -45.6298  -58.4442 H         1 UNK         0.0828 
    104 H104       30.5041  -46.0691  -59.5646 H         1 UNK         0.0828 
    105 H105       30.7690  -44.8129  -58.3690 H         1 UNK         0.0828 
    106 H106       31.2106  -46.0457  -55.6162 H         1 UNK         0.3005 
    107 H107       30.0867  -45.5402  -53.8761 H         1 UNK         0.1257 
    108 H108       27.8820  -44.3877  -54.7184 H         1 UNK         0.0775 
    109 H109       27.0254  -45.6337  -53.8686 H         1 UNK         0.0775 
    110 H110       27.5903  -42.0463  -53.3373 H         1 UNK         0.0840 
    111 H111       28.7974  -41.8411  -52.0918 H         1 UNK         0.0840 
    112 H112       28.2641  -47.2333  -52.6074 H         1 UNK         0.2987 
    113 H113       29.4544  -48.8658  -51.1426 H         1 UNK         0.0785 
    114 H114       28.0683  -50.8693  -51.7972 H         1 UNK         0.0798 
    115 H115       28.3978  -50.5467  -53.4958 H         1 UNK         0.0798 
    116 H116       27.4435  -49.4128  -52.5498 H         1 UNK         0.0798 
    117 H117       31.1729  -50.4257  -52.9498 H         1 UNK         0.3079 
    118 H118       33.1082  -51.4609  -50.2363 H         1 UNK         0.0794 
    119 H119       31.7868  -53.5270  -50.4262 H         1 UNK         0.0786 
    120 H120       33.2489  -53.6761  -51.3881 H         1 UNK         0.0786 
    121 H121       31.6977  -53.3739  -52.1714 H         1 UNK         0.0786 
    122 H122       34.1749  -50.5189  -51.9010 H         1 UNK         0.3032 
    123 H123       35.2023  -50.7550  -54.2043 H         1 UNK         0.1094 
    124 H124       32.9966  -49.9514  -56.1747 H         1 UNK         0.0794 
    125 H125       34.7286  -49.8793  -56.4740 H         1 UNK         0.0794 
    126 H126       33.9381  -51.4346  -56.2633 H         1 UNK         0.0794 
    127 H127       33.2252  -48.5769  -53.7422 H         1 UNK         0.3016 
@<TRIPOS>BOND
     1    1    2 1    
     2    1   67 1    
     3    1   68 1    
     4    1   69 1    
     5    2    3 2    
     6    2    4 am   BACKBONE|DICT|INTERRES
     7    4    5 1    
     8    4   70 1    
     9    5    6 1    
    10    5   65 1    
    11    5   71 1    
    12    6    7 1    
    13    6   72 1    
    14    6   73 1    
    15    7    8 1    
    16    8    9 1    
    17    8   74 1    
    18    8   75 1    
    19    9   10 ar   
    20    9   14 ar   
    21   10   11 ar   
    22   10   76 1    
    23   11   12 ar   
    24   11   48 1    
    25   12   13 ar   
    26   12   77 1    
    27   13   14 ar   
    28   13   15 1    
    29   14   78 1    
    30   15   16 1    
    31   15   79 1    
    32   15   80 1    
    33   16   17 1    
    34   17   18 1    
    35   17   81 1    
    36   17   82 1    
    37   18   19 1    
    38   18   22 1    
    39   18   83 1    
    40   19   20 am   BACKBONE|DICT|INTERRES
    41   19   21 2    
    42   20   84 1    
    43   20   85 1    
    44   22   23 am   BACKBONE|DICT|INTERRES
    45   22   86 1    
    46   23   24 2    
    47   23   25 1    
    48   25   26 1    
    49   25   27 1    
    50   25   87 1    
    51   26   88 1    
    52   26   89 1    
    53   26   90 1    
    54   27   28 am   BACKBONE|DICT|INTERRES
    55   27   91 1    
    56   28   29 2    
    57   28   30 1    
    58   30   31 1    
    59   30   32 1    
    60   30   92 1    
    61   31   93 1    
    62   31   94 1    
    63   31   95 1    
    64   32   33 am   BACKBONE|DICT|INTERRES
    65   32   96 1    
    66   33   34 2    
    67   33   35 1    
    68   35   36 1    
    69   35   37 1    
    70   35   97 1    
    71   36   98 1    
    72   36   99 1    
    73   36  100 1    
    74   37   38 am   BACKBONE|DICT|INTERRES
    75   37  101 1    
    76   38   39 2    
    77   38   40 1    
    78   40   41 1    
    79   40   42 1    
    80   40  102 1    
    81   41  103 1    
    82   41  104 1    
    83   41  105 1    
    84   42   43 am   BACKBONE|DICT|INTERRES
    85   42  106 1    
    86   43   44 2    
    87   43   45 1    
    88   45   46 1    
    89   45   49 1    
    90   45  107 1    
    91   46   47 1    
    92   46  108 1    
    93   46  109 1    
    94   47   48 1    
    95   48  110 1    
    96   48  111 1    
    97   49   50 am   BACKBONE|DICT|INTERRES
    98   49  112 1    
    99   50   51 2    
   100   50   52 1    
   101   52   53 1    
   102   52   54 1    
   103   52  113 1    
   104   53  114 1    
   105   53  115 1    
   106   53  116 1    
   107   54   55 am   BACKBONE|DICT|INTERRES
   108   54  117 1    
   109   55   56 2    
   110   55   57 1    
   111   57   58 1    
   112   57   59 1    
   113   57  118 1    
   114   58  119 1    
   115   58  120 1    
   116   58  121 1    
   117   59   60 am   BACKBONE|DICT|INTERRES
   118   59  122 1    
   119   60   61 2    
   120   60   62 1    
   121   62   63 1    
   122   62   64 1    
   123   62  123 1    
   124   63  124 1    
   125   63  125 1    
   126   63  126 1    
   127   64   65 am   BACKBONE|DICT|INTERRES
   128   64  127 1    
   129   65   66 2    
@<TRIPOS>SUBSTRUCTURE
     1 UNK         1 GROUP             0       ****    0 ROOT    
