@<TRIPOS>MOLECULE
3R134
127   129    1
SMALL
USER_CHARGES


@<TRIPOS>ATOM
      1 CA         35.8851  -43.8942  -51.2051 C.3       0 UNK        -0.1968 
      2 C          34.4185  -44.3124  -51.1723 C.2       0 UNK         0.4852 
      3 O          33.7109  -43.9548  -50.2327 O.2       0 UNK        -0.5359 
      4 N          33.9100  -45.0647  -52.1571 N.am      1 UNK        -0.4300 
      5 CA         34.6067  -45.5950  -53.3389 C.3       1 UNK         0.0863 
      6 C6         34.1281  -44.9373  -54.6603 C.3       11 UNK        -0.0953 
      7 S7         34.3581  -43.1267  -54.6612 S.3       11 UNK        -0.2369 
      8 C8         32.8712  -42.5449  -55.5472 C.3       11 UNK         0.0226 
      9 C9         31.5412  -42.9774  -54.9306 C.ar      11 UNK        -0.0699 
     10 C10        31.3626  -43.0619  -53.5442 C.ar      11 UNK        -0.0804 
     11 C11        30.1437  -43.4882  -53.0081 C.ar      11 UNK        -0.0871 
     12 C12        29.0711  -43.7440  -53.8652 C.ar      11 UNK        -0.1008 
     13 C13        29.2430  -43.6997  -55.2492 C.ar      11 UNK        -0.0735 
     14 C14        30.4794  -43.3155  -55.7752 C.ar      11 UNK        -0.0945 
     15 C15        28.1233  -44.1784  -56.1576 C.3       11 UNK         0.0169 
     16 S16        27.1640  -42.8236  -56.9063 S.3       11 UNK        -0.2669 
     17 C17        28.0447  -42.5462  -58.4832 C.3       11 UNK        -0.0850 
     18 CA         27.4829  -43.3870  -59.6621 C.3       10 UNK         0.0855 
     19 C          28.2179  -43.0049  -60.9771 C.2       10 UNK         0.5543 
     20 N          27.6300  -42.1366  -61.7883 N.am      10 UNK        -0.7343 
     21 O          29.3344  -43.4496  -61.2371 O.2       10 UNK        -0.5027 
     22 N          27.5445  -44.8240  -59.3541 N.am      10 UNK        -0.4495 
     23 C          27.2021  -45.8448  -60.1479 C.2       10 UNK         0.4903 
     24 O          26.7344  -45.7244  -61.2804 O.2       10 UNK        -0.4860 
     25 CA         27.4089  -47.2518  -59.5593 C.3       9 UNK         0.0227 
     26 CB         28.8533  -47.7266  -59.7886 C.3       9 UNK        -0.1964 
     27 N          27.0922  -47.3514  -58.1302 N.am      9 UNK        -0.4231 
     28 C          25.8657  -47.2287  -57.6021 C.2       9 UNK         0.5014 
     29 O          24.8629  -46.9247  -58.2514 O.2       9 UNK        -0.5270 
     30 CA         25.7518  -47.5538  -56.0991 C.3       8 UNK         0.0284 
     31 CB         24.3100  -47.4592  -55.5576 C.3       8 UNK        -0.1977 
     32 N          26.3509  -48.8557  -55.7809 N.am      8 UNK        -0.4342 
     33 C          26.0139  -50.0572  -56.2762 C.2       8 UNK         0.5039 
     34 O          25.0551  -50.2543  -57.0238 O.2       8 UNK        -0.5547 
     35 CA         26.9151  -51.2486  -55.9055 C.3       7 UNK         0.0281 
     36 CB         27.8076  -51.6197  -57.1018 C.3       7 UNK        -0.1963 
     37 N          27.7612  -50.9991  -54.7346 N.am      7 UNK        -0.4444 
     38 C          27.3281  -51.0355  -53.4666 C.2       7 UNK         0.5104 
     39 O          26.1766  -51.3293  -53.1442 O.2       7 UNK        -0.5100 
     40 CA         28.3431  -50.6527  -52.3741 C.3       6 UNK         0.0396 
     41 CB         29.2790  -51.8308  -52.0640 C.3       6 UNK        -0.1801 
     42 N          29.1377  -49.4668  -52.7088 N.am      6 UNK        -0.4747 
     43 C          28.6360  -48.2388  -52.9128 C.2       6 UNK         0.5012 
     44 O          27.4365  -47.9699  -52.8521 O.2       6 UNK        -0.5003 
     45 CA         29.6349  -47.1390  -53.3138 C.3       5 UNK         0.0782 
     46 C46        30.3819  -46.5313  -52.0963 C.3       11 UNK        -0.0868 
     47 S47        29.3369  -45.3928  -51.1156 S.3       11 UNK        -0.2515 
     48 C48        30.0069  -43.7332  -51.5100 C.3       11 UNK         0.0199 
     49 N          30.5575  -47.6356  -54.3350 N.am      5 UNK        -0.4607 
     50 C          30.2394  -47.7952  -55.6276 C.2       4 UNK         0.5031 
     51 O          29.1564  -47.4703  -56.1173 O.2       4 UNK        -0.5119 
     52 CA         31.2922  -48.4646  -56.5256 C.3       4 UNK         0.0263 
     53 CB         32.1857  -47.4091  -57.1935 C.3       4 UNK        -0.1967 
     54 N          32.1201  -49.4388  -55.8069 N.am      4 UNK        -0.4237 
     55 C          31.6541  -50.6102  -55.3471 C.2       3 UNK         0.4908 
     56 O          30.4933  -50.9867  -55.4987 O.2       3 UNK        -0.5102 
     57 CA         32.6187  -51.4971  -54.5430 C.3       3 UNK         0.0241 
     58 CB         33.4197  -52.4090  -55.4854 C.3       3 UNK        -0.1971 
     59 N          33.5401  -50.7560  -53.6792 N.am      3 UNK        -0.4139 
     60 C          33.1909  -49.8765  -52.7298 C.2       2 UNK         0.5016 
     61 O          32.0260  -49.5568  -52.4844 O.2       2 UNK        -0.5319 
     62 CA         34.3295  -49.2030  -51.9411 C.3       2 UNK         0.0286 
     63 CB         35.7217  -49.8354  -52.1718 C.3       2 UNK        -0.1963 
     64 N          34.3890  -47.7568  -52.1869 N.am      2 UNK        -0.4790 
     65 C          34.4845  -47.1338  -53.3741 C.2       1 UNK         0.5024 
     66 O          34.4782  -47.7253  -54.4557 O.2       1 UNK        -0.4888 
     67 H67        36.1118  -43.2280  -50.3729 H         1 UNK         0.0892 
     68 H68        36.5369  -44.7635  -51.1231 H         1 UNK         0.0892 
     69 H69        36.1181  -43.3617  -52.1267 H         1 UNK         0.0892 
     70 H70        32.9359  -45.3188  -52.0955 H         1 UNK         0.3107 
     71 H71        35.6790  -45.4141  -53.2635 H         1 UNK         0.0773 
     72 H72        34.6815  -45.3335  -55.5136 H         1 UNK         0.0680 
     73 H73        33.0791  -45.1777  -54.8369 H         1 UNK         0.0680 
     74 H74        32.8956  -41.4554  -55.5864 H         1 UNK         0.0650 
     75 H75        32.9409  -42.8927  -56.5790 H         1 UNK         0.0650 
     76 H76        32.1852  -42.8297  -52.8823 H         1 UNK         0.1397 
     77 H77        28.1240  -44.0642  -53.4522 H         1 UNK         0.1363 
     78 H78        30.6266  -43.2975  -56.8447 H         1 UNK         0.1355 
     79 H79        27.4315  -44.7969  -55.5864 H         1 UNK         0.0707 
     80 H80        28.5445  -44.8344  -56.9173 H         1 UNK         0.0707 
     81 H81        27.9598  -41.4820  -58.7125 H         1 UNK         0.1034 
     82 H82        29.1103  -42.7323  -58.3531 H         1 UNK         0.1034 
     83 H83        26.4253  -43.1439  -59.7812 H         1 UNK         0.0482 
     84 H84        26.7196  -41.7581  -61.5765 H         1 UNK         0.3460 
     85 H85        28.0999  -41.8632  -62.6373 H         1 UNK         0.3460 
     86 H86        27.9001  -45.0523  -58.4407 H         1 UNK         0.2989 
     87 H87        26.7410  -47.9322  -60.0918 H         1 UNK         0.0559 
     88 H88        29.5728  -47.1071  -59.2522 H         1 UNK         0.0848 
     89 H89        28.9892  -48.7578  -59.4619 H         1 UNK         0.0848 
     90 H90        29.1140  -47.6862  -60.8472 H         1 UNK         0.0848 
     91 H91        27.8607  -47.5617  -57.4964 H         1 UNK         0.3144 
     92 H92        26.3481  -46.8113  -55.5697 H         1 UNK         0.0727 
     93 H93        23.9041  -46.4578  -55.7059 H         1 UNK         0.0790 
     94 H94        24.2761  -47.6684  -54.4883 H         1 UNK         0.0790 
     95 H95        23.6400  -48.1589  -56.0582 H         1 UNK         0.0790 
     96 H96        27.1588  -48.8184  -55.1742 H         1 UNK         0.3215 
     97 H97        26.2640  -52.0985  -55.6890 H         1 UNK         0.0863 
     98 H98        28.4284  -52.4881  -56.8804 H         1 UNK         0.0808 
     99 H99        28.4684  -50.7979  -57.3811 H         1 UNK         0.0808 
    100 H100       27.2061  -51.8660  -57.9778 H         1 UNK         0.0808 
    101 H101       28.7488  -50.8245  -54.9159 H         1 UNK         0.3118 
    102 H102       27.7818  -50.4207  -51.4666 H         1 UNK         0.0546 
    103 H103       29.8524  -52.1311  -52.9405 H         1 UNK         0.0828 
    104 H104       28.7113  -52.7017  -51.7336 H         1 UNK         0.0828 
    105 H105       29.9840  -51.5821  -51.2705 H         1 UNK         0.0828 
    106 H106       30.1480  -49.5862  -52.7485 H         1 UNK         0.3005 
    107 H107       29.0437  -46.3520  -53.7803 H         1 UNK         0.1257 
    108 H108       31.2542  -45.9795  -52.4428 H         1 UNK         0.0775 
    109 H109       30.7694  -47.3126  -51.4395 H         1 UNK         0.0775 
    110 H110       29.3495  -42.9743  -51.0841 H         1 UNK         0.0840 
    111 H111       30.9704  -43.6215  -51.0100 H         1 UNK         0.0840 
    112 H112       31.4339  -48.0135  -54.0012 H         1 UNK         0.2987 
    113 H113       30.7527  -48.9956  -57.3131 H         1 UNK         0.0785 
    114 H114       32.8010  -46.8820  -56.4659 H         1 UNK         0.0798 
    115 H115       31.5879  -46.6615  -57.7167 H         1 UNK         0.0798 
    116 H116       32.8519  -47.8626  -57.9274 H         1 UNK         0.0798 
    117 H117       33.0749  -49.1715  -55.5987 H         1 UNK         0.3079 
    118 H118       32.0133  -52.1319  -53.8942 H         1 UNK         0.0794 
    119 H119       32.7537  -52.9890  -56.1263 H         1 UNK         0.0786 
    120 H120       34.0285  -53.1209  -54.9276 H         1 UNK         0.0786 
    121 H121       34.0820  -51.8368  -56.1364 H         1 UNK         0.0786 
    122 H122       34.5252  -50.9242  -53.8225 H         1 UNK         0.3032 
    123 H123       34.0770  -49.3346  -50.8874 H         1 UNK         0.1094 
    124 H124       36.4664  -49.3801  -51.5185 H         1 UNK         0.0794 
    125 H125       35.7163  -50.9027  -51.9450 H         1 UNK         0.0794 
    126 H126       36.0709  -49.7103  -53.1975 H         1 UNK         0.0794 
    127 H127       34.3655  -47.1772  -51.3592 H         1 UNK         0.3016 
@<TRIPOS>BOND
     1    1    2 1    
     2    1   67 1    
     3    1   68 1    
     4    1   69 1    
     5    2    3 2    
     6    2    4 am   BACKBONE|DICT|INTERRES
     7    4    5 1    
     8    4   70 1    
     9    5    6 1    
    10    5   65 1    
    11    5   71 1    
    12    6    7 1    
    13    6   72 1    
    14    6   73 1    
    15    7    8 1    
    16    8    9 1    
    17    8   74 1    
    18    8   75 1    
    19    9   10 ar   
    20    9   14 ar   
    21   10   11 ar   
    22   10   76 1    
    23   11   12 ar   
    24   11   48 1    
    25   12   13 ar   
    26   12   77 1    
    27   13   14 ar   
    28   13   15 1    
    29   14   78 1    
    30   15   16 1    
    31   15   79 1    
    32   15   80 1    
    33   16   17 1    
    34   17   18 1    
    35   17   81 1    
    36   17   82 1    
    37   18   19 1    
    38   18   22 1    
    39   18   83 1    
    40   19   20 am   BACKBONE|DICT|INTERRES
    41   19   21 2    
    42   20   84 1    
    43   20   85 1    
    44   22   23 am   BACKBONE|DICT|INTERRES
    45   22   86 1    
    46   23   24 2    
    47   23   25 1    
    48   25   26 1    
    49   25   27 1    
    50   25   87 1    
    51   26   88 1    
    52   26   89 1    
    53   26   90 1    
    54   27   28 am   BACKBONE|DICT|INTERRES
    55   27   91 1    
    56   28   29 2    
    57   28   30 1    
    58   30   31 1    
    59   30   32 1    
    60   30   92 1    
    61   31   93 1    
    62   31   94 1    
    63   31   95 1    
    64   32   33 am   BACKBONE|DICT|INTERRES
    65   32   96 1    
    66   33   34 2    
    67   33   35 1    
    68   35   36 1    
    69   35   37 1    
    70   35   97 1    
    71   36   98 1    
    72   36   99 1    
    73   36  100 1    
    74   37   38 am   BACKBONE|DICT|INTERRES
    75   37  101 1    
    76   38   39 2    
    77   38   40 1    
    78   40   41 1    
    79   40   42 1    
    80   40  102 1    
    81   41  103 1    
    82   41  104 1    
    83   41  105 1    
    84   42   43 am   BACKBONE|DICT|INTERRES
    85   42  106 1    
    86   43   44 2    
    87   43   45 1    
    88   45   46 1    
    89   45   49 1    
    90   45  107 1    
    91   46   47 1    
    92   46  108 1    
    93   46  109 1    
    94   47   48 1    
    95   48  110 1    
    96   48  111 1    
    97   49   50 am   BACKBONE|DICT|INTERRES
    98   49  112 1    
    99   50   51 2    
   100   50   52 1    
   101   52   53 1    
   102   52   54 1    
   103   52  113 1    
   104   53  114 1    
   105   53  115 1    
   106   53  116 1    
   107   54   55 am   BACKBONE|DICT|INTERRES
   108   54  117 1    
   109   55   56 2    
   110   55   57 1    
   111   57   58 1    
   112   57   59 1    
   113   57  118 1    
   114   58  119 1    
   115   58  120 1    
   116   58  121 1    
   117   59   60 am   BACKBONE|DICT|INTERRES
   118   59  122 1    
   119   60   61 2    
   120   60   62 1    
   121   62   63 1    
   122   62   64 1    
   123   62  123 1    
   124   63  124 1    
   125   63  125 1    
   126   63  126 1    
   127   64   65 am   BACKBONE|DICT|INTERRES
   128   64  127 1    
   129   65   66 2    
@<TRIPOS>SUBSTRUCTURE
     1 UNK         1 GROUP             0       ****    0 ROOT    
