@<TRIPOS>MOLECULE
3R134
127   129    1
SMALL
USER_CHARGES


@<TRIPOS>ATOM
      1 CA         37.6168  -44.3480  -50.4774 C.3       0 UNK        -0.1968 
      2 C          37.1736  -44.6356  -51.9047 C.2       0 UNK         0.4852 
      3 O          37.9611  -44.4581  -52.8359 O.2       0 UNK        -0.5359 
      4 N          35.9191  -45.0699  -52.0831 N.am      1 UNK        -0.4300 
      5 CA         35.3461  -45.4632  -53.3736 C.3       1 UNK         0.0863 
      6 C6         33.7973  -45.4562  -53.3178 C.3       11 UNK        -0.0953 
      7 S7         33.0446  -45.2866  -54.9740 S.3       11 UNK        -0.2369 
      8 C8         32.1846  -43.6879  -54.8406 C.3       11 UNK         0.0226 
      9 C9         30.7612  -43.8605  -54.3306 C.ar      11 UNK        -0.0699 
     10 C10        30.4870  -43.8667  -52.9595 C.ar      11 UNK        -0.0804 
     11 C11        29.1757  -44.0270  -52.4998 C.ar      11 UNK        -0.0871 
     12 C12        28.1327  -44.1534  -53.4222 C.ar      11 UNK        -0.1008 
     13 C13        28.3966  -44.1686  -54.7936 C.ar      11 UNK        -0.0735 
     14 C14        29.7129  -44.0205  -55.2407 C.ar      11 UNK        -0.0945 
     15 C15        27.2640  -44.4072  -55.7806 C.3       11 UNK         0.0169 
     16 S16        26.4550  -42.8672  -56.3047 S.3       11 UNK        -0.2669 
     17 C17        27.5738  -42.2743  -57.6200 C.3       11 UNK        -0.0850 
     18 CA         27.0962  -42.6889  -59.0382 C.3       10 UNK         0.0855 
     19 C          27.8054  -41.8504  -60.1433 C.2       10 UNK         0.5543 
     20 N          28.4843  -42.4549  -61.1112 N.am      10 UNK        -0.7343 
     21 O          27.7268  -40.6244  -60.1294 O.2       10 UNK        -0.5027 
     22 N          27.1851  -44.1481  -59.2533 N.am      10 UNK        -0.4495 
     23 C          26.3264  -44.8513  -60.0035 C.2       10 UNK         0.4903 
     24 O          25.3150  -44.3674  -60.5135 O.2       10 UNK        -0.4860 
     25 CA         26.6453  -46.3336  -60.2767 C.3       9 UNK         0.0227 
     26 CB         27.0537  -46.5235  -61.7481 C.3       9 UNK        -0.1964 
     27 N          27.6889  -46.9137  -59.4230 N.am      9 UNK        -0.4231 
     28 C          27.4767  -47.4163  -58.1997 C.2       9 UNK         0.5014 
     29 O          26.4099  -47.3131  -57.5904 O.2       9 UNK        -0.5270 
     30 CA         28.6677  -48.1511  -57.5527 C.3       8 UNK         0.0284 
     31 CB         29.5032  -47.2018  -56.6801 C.3       8 UNK        -0.1977 
     32 N          28.2425  -49.2848  -56.7317 N.am      8 UNK        -0.4342 
     33 C          27.6308  -50.3874  -57.1845 C.2       8 UNK         0.5039 
     34 O          27.3997  -50.6068  -58.3748 O.2       8 UNK        -0.5547 
     35 CA         27.2180  -51.4313  -56.1365 C.3       7 UNK         0.0281 
     36 CB         28.4029  -52.3544  -55.8039 C.3       7 UNK        -0.1963 
     37 N          26.7321  -50.8037  -54.9051 N.am      7 UNK        -0.4444 
     38 C          25.4425  -50.5747  -54.6211 C.2       7 UNK         0.5104 
     39 O          24.5151  -50.8706  -55.3757 O.2       7 UNK        -0.5100 
     40 CA         25.1120  -49.9427  -53.2539 C.3       6 UNK         0.0396 
     41 CB         24.6032  -51.0196  -52.2817 C.3       6 UNK        -0.1801 
     42 N          26.2502  -49.2535  -52.6410 N.am      6 UNK        -0.4747 
     43 C          26.6350  -48.0041  -52.9398 C.2       6 UNK         0.5012 
     44 O          26.0201  -47.2683  -53.7106 O.2       6 UNK        -0.5003 
     45 CA         27.9359  -47.4918  -52.2821 C.3       5 UNK         0.0782 
     46 C46        27.6073  -46.6187  -51.0449 C.3       11 UNK        -0.0868 
     47 S47        29.0784  -45.7813  -50.3592 S.3       11 UNK        -0.2515 
     48 C48        28.8899  -44.0870  -51.0068 C.3       11 UNK         0.0199 
     49 N          28.9005  -48.5564  -51.9657 N.am      5 UNK        -0.4607 
     50 C          29.4492  -49.3797  -52.8664 C.2       4 UNK         0.5031 
     51 O          29.1167  -49.4101  -54.0529 O.2       4 UNK        -0.5119 
     52 CA         30.4946  -50.3809  -52.3497 C.3       4 UNK         0.0263 
     53 CB         29.8064  -51.6829  -51.9078 C.3       4 UNK        -0.1967 
     54 N          31.4941  -50.6903  -53.3764 N.am      4 UNK        -0.4237 
     55 C          32.3544  -49.7952  -53.8782 C.2       3 UNK         0.4908 
     56 O          32.4632  -48.6414  -53.4580 O.2       3 UNK        -0.5102 
     57 CA         33.2293  -50.2632  -55.0471 C.3       3 UNK         0.0241 
     58 CB         32.3973  -50.4640  -56.3281 C.3       3 UNK        -0.1971 
     59 N          34.2550  -49.2527  -55.2882 N.am      3 UNK        -0.4139 
     60 C          35.5160  -49.4839  -55.6654 C.2       2 UNK         0.5016 
     61 O          35.9565  -50.6057  -55.9215 O.2       2 UNK        -0.5319 
     62 CA         36.4534  -48.2663  -55.7907 C.3       2 UNK         0.0286 
     63 CB         36.7429  -47.9636  -57.2706 C.3       2 UNK        -0.1963 
     64 N          35.9487  -47.0453  -55.1506 N.am      2 UNK        -0.4790 
     65 C          35.9046  -46.8314  -53.8285 C.2       1 UNK         0.5024 
     66 O          36.2663  -47.6638  -52.9927 O.2       1 UNK        -0.4888 
     67 H67        36.8196  -44.5320  -49.7573 H         1 UNK         0.0892 
     68 H68        38.4641  -44.9804  -50.2136 H         1 UNK         0.0892 
     69 H69        37.9251  -43.3072  -50.3825 H         1 UNK         0.0892 
     70 H70        35.3335  -45.2329  -51.2767 H         1 UNK         0.3107 
     71 H71        35.6644  -44.7125  -54.1010 H         1 UNK         0.0773 
     72 H72        33.4108  -46.3515  -52.8303 H         1 UNK         0.0680 
     73 H73        33.4571  -44.6255  -52.6994 H         1 UNK         0.0680 
     74 H74        32.1669  -43.2242  -55.8280 H         1 UNK         0.0650 
     75 H75        32.7438  -43.0037  -54.2009 H         1 UNK         0.0650 
     76 H76        31.2944  -43.7626  -52.2483 H         1 UNK         0.1397 
     77 H77        27.1160  -44.2779  -53.0755 H         1 UNK         0.1363 
     78 H78        29.9305  -44.0461  -56.2985 H         1 UNK         0.1355 
     79 H79        27.6318  -44.9397  -56.6549 H         1 UNK         0.0707 
     80 H80        26.5142  -45.0596  -55.3302 H         1 UNK         0.0707 
     81 H81        28.5955  -42.6059  -57.4417 H         1 UNK         0.1034 
     82 H82        27.6009  -41.1866  -57.5286 H         1 UNK         0.1034 
     83 H83        26.0460  -42.3985  -59.1071 H         1 UNK         0.0482 
     84 H84        28.5480  -43.4588  -61.1434 H         1 UNK         0.3460 
     85 H85        28.9318  -41.8971  -61.8216 H         1 UNK         0.3460 
     86 H86        28.0023  -44.6122  -58.8890 H         1 UNK         0.2989 
     87 H87        25.7197  -46.8911  -60.1165 H         1 UNK         0.0559 
     88 H88        27.9811  -46.0004  -61.9840 H         1 UNK         0.0848 
     89 H89        26.2853  -46.1409  -62.4217 H         1 UNK         0.0848 
     90 H90        27.1916  -47.5778  -61.9890 H         1 UNK         0.0848 
     91 H91        28.6005  -47.0301  -59.8429 H         1 UNK         0.3144 
     92 H92        29.3067  -48.5432  -58.3467 H         1 UNK         0.0727 
     93 H93        29.8339  -46.3305  -57.2456 H         1 UNK         0.0790 
     94 H94        30.3966  -47.6940  -56.2961 H         1 UNK         0.0790 
     95 H95        28.9344  -46.8494  -55.8194 H         1 UNK         0.0790 
     96 H96        28.4393  -49.2193  -55.7352 H         1 UNK         0.3215 
     97 H97        26.4280  -52.0465  -56.5733 H         1 UNK         0.0863 
     98 H98        28.1126  -53.1323  -55.0975 H         1 UNK         0.0808 
     99 H99        29.2388  -51.8038  -55.3721 H         1 UNK         0.0808 
    100 H100       28.7710  -52.8530  -56.7016 H         1 UNK         0.0808 
    101 H101       27.4400  -50.4482  -54.2729 H         1 UNK         0.3118 
    102 H102       24.3050  -49.2237  -53.4113 H         1 UNK         0.0546 
    103 H103       23.7317  -51.5337  -52.6899 H         1 UNK         0.0828 
    104 H104       24.3019  -50.5844  -51.3287 H         1 UNK         0.0828 
    105 H105       25.3626  -51.7766  -52.0817 H         1 UNK         0.0828 
    106 H106       26.8055  -49.7805  -51.9823 H         1 UNK         0.3005 
    107 H107       28.4177  -46.8593  -53.0306 H         1 UNK         0.1257 
    108 H108       27.1707  -47.2329  -50.2551 H         1 UNK         0.0775 
    109 H109       26.8528  -45.8675  -51.2848 H         1 UNK         0.0775 
    110 H110       27.8880  -43.7138  -50.7888 H         1 UNK         0.0840 
    111 H111       29.5784  -43.4288  -50.4745 H         1 UNK         0.0840 
    112 H112       29.2199  -48.5892  -51.0082 H         1 UNK         0.2987 
    113 H113       31.0109  -49.9415  -51.4934 H         1 UNK         0.0785 
    114 H114       29.0802  -51.4941  -51.1161 H         1 UNK         0.0798 
    115 H115       30.5281  -52.3997  -51.5158 H         1 UNK         0.0798 
    116 H116       29.2734  -52.1600  -52.7314 H         1 UNK         0.0798 
    117 H117       31.4527  -51.6115  -53.7863 H         1 UNK         0.3079 
    118 H118       33.6982  -51.2067  -54.7594 H         1 UNK         0.0794 
    119 H119       31.8993  -49.5432  -56.6325 H         1 UNK         0.0786 
    120 H120       31.6253  -51.2211  -56.1880 H         1 UNK         0.0786 
    121 H121       33.0235  -50.7932  -57.1574 H         1 UNK         0.0786 
    122 H122       33.9887  -48.3147  -55.0143 H         1 UNK         0.3032 
    123 H123       37.3943  -48.5400  -55.3075 H         1 UNK         0.1094 
    124 H124       35.8385  -47.6751  -57.8080 H         1 UNK         0.0794 
    125 H125       37.4702  -47.1585  -57.3772 H         1 UNK         0.0794 
    126 H126       37.1561  -48.8382  -57.7755 H         1 UNK         0.0794 
    127 H127       35.6032  -46.3223  -55.7670 H         1 UNK         0.3016 
@<TRIPOS>BOND
     1    1    2 1    
     2    1   67 1    
     3    1   68 1    
     4    1   69 1    
     5    2    3 2    
     6    2    4 am   BACKBONE|DICT|INTERRES
     7    4    5 1    
     8    4   70 1    
     9    5    6 1    
    10    5   65 1    
    11    5   71 1    
    12    6    7 1    
    13    6   72 1    
    14    6   73 1    
    15    7    8 1    
    16    8    9 1    
    17    8   74 1    
    18    8   75 1    
    19    9   10 ar   
    20    9   14 ar   
    21   10   11 ar   
    22   10   76 1    
    23   11   12 ar   
    24   11   48 1    
    25   12   13 ar   
    26   12   77 1    
    27   13   14 ar   
    28   13   15 1    
    29   14   78 1    
    30   15   16 1    
    31   15   79 1    
    32   15   80 1    
    33   16   17 1    
    34   17   18 1    
    35   17   81 1    
    36   17   82 1    
    37   18   19 1    
    38   18   22 1    
    39   18   83 1    
    40   19   20 am   BACKBONE|DICT|INTERRES
    41   19   21 2    
    42   20   84 1    
    43   20   85 1    
    44   22   23 am   BACKBONE|DICT|INTERRES
    45   22   86 1    
    46   23   24 2    
    47   23   25 1    
    48   25   26 1    
    49   25   27 1    
    50   25   87 1    
    51   26   88 1    
    52   26   89 1    
    53   26   90 1    
    54   27   28 am   BACKBONE|DICT|INTERRES
    55   27   91 1    
    56   28   29 2    
    57   28   30 1    
    58   30   31 1    
    59   30   32 1    
    60   30   92 1    
    61   31   93 1    
    62   31   94 1    
    63   31   95 1    
    64   32   33 am   BACKBONE|DICT|INTERRES
    65   32   96 1    
    66   33   34 2    
    67   33   35 1    
    68   35   36 1    
    69   35   37 1    
    70   35   97 1    
    71   36   98 1    
    72   36   99 1    
    73   36  100 1    
    74   37   38 am   BACKBONE|DICT|INTERRES
    75   37  101 1    
    76   38   39 2    
    77   38   40 1    
    78   40   41 1    
    79   40   42 1    
    80   40  102 1    
    81   41  103 1    
    82   41  104 1    
    83   41  105 1    
    84   42   43 am   BACKBONE|DICT|INTERRES
    85   42  106 1    
    86   43   44 2    
    87   43   45 1    
    88   45   46 1    
    89   45   49 1    
    90   45  107 1    
    91   46   47 1    
    92   46  108 1    
    93   46  109 1    
    94   47   48 1    
    95   48  110 1    
    96   48  111 1    
    97   49   50 am   BACKBONE|DICT|INTERRES
    98   49  112 1    
    99   50   51 2    
   100   50   52 1    
   101   52   53 1    
   102   52   54 1    
   103   52  113 1    
   104   53  114 1    
   105   53  115 1    
   106   53  116 1    
   107   54   55 am   BACKBONE|DICT|INTERRES
   108   54  117 1    
   109   55   56 2    
   110   55   57 1    
   111   57   58 1    
   112   57   59 1    
   113   57  118 1    
   114   58  119 1    
   115   58  120 1    
   116   58  121 1    
   117   59   60 am   BACKBONE|DICT|INTERRES
   118   59  122 1    
   119   60   61 2    
   120   60   62 1    
   121   62   63 1    
   122   62   64 1    
   123   62  123 1    
   124   63  124 1    
   125   63  125 1    
   126   63  126 1    
   127   64   65 am   BACKBONE|DICT|INTERRES
   128   64  127 1    
   129   65   66 2    
@<TRIPOS>SUBSTRUCTURE
     1 UNK         1 GROUP             0       ****    0 ROOT    
