@<TRIPOS>MOLECULE
3R134
127   129    1
SMALL
USER_CHARGES


@<TRIPOS>ATOM
      1 CA         34.5958  -43.2756  -47.7246 C.3       0 UNK        -0.1968 
      2 C          35.0850  -44.0800  -48.9202 C.2       0 UNK         0.4852 
      3 O          36.2029  -44.5979  -48.8927 O.2       0 UNK        -0.5359 
      4 N          34.2612  -44.1800  -49.9707 N.am      1 UNK        -0.4300 
      5 CA         34.5202  -44.9718  -51.1759 C.3       1 UNK         0.0863 
      6 C6         33.5944  -44.5701  -52.3536 C.3       11 UNK        -0.0953 
      7 S7         31.8270  -44.3881  -51.9157 S.3       11 UNK        -0.2369 
      8 C8         31.2682  -43.1809  -53.1612 C.3       11 UNK         0.0226 
      9 C9         31.0472  -43.8374  -54.5163 C.ar      11 UNK        -0.0699 
     10 C10        32.1302  -44.0806  -55.3659 C.ar      11 UNK        -0.0804 
     11 C11        31.9428  -44.7298  -56.5881 C.ar      11 UNK        -0.0871 
     12 C12        30.6534  -45.1017  -56.9757 C.ar      11 UNK        -0.1008 
     13 C13        29.5544  -44.8437  -56.1478 C.ar      11 UNK        -0.0735 
     14 C14        29.7610  -44.2152  -54.9157 C.ar      11 UNK        -0.0945 
     15 C15        28.1560  -45.3089  -56.5418 C.3       11 UNK         0.0169 
     16 S16        27.7384  -44.9458  -58.2783 S.3       11 UNK        -0.2669 
     17 C17        27.3009  -43.1713  -58.2114 C.3       11 UNK        -0.0850 
     18 CA         25.8100  -42.9086  -58.5527 C.3       10 UNK         0.0855 
     19 C          25.5156  -43.1590  -60.0637 C.2       10 UNK         0.5543 
     20 N          24.8318  -44.2366  -60.4355 N.am      10 UNK        -0.7343 
     21 O          25.9078  -42.3548  -60.9056 O.2       10 UNK        -0.5027 
     22 N          24.9234  -43.6344  -57.6335 N.am      10 UNK        -0.4495 
     23 C          23.6047  -43.4433  -57.5164 C.2       10 UNK         0.4903 
     24 O          23.0109  -42.4900  -58.0227 O.2       10 UNK        -0.4860 
     25 CA         22.8068  -44.4851  -56.7020 C.3       9 UNK         0.0227 
     26 CB         21.4779  -44.8477  -57.3984 C.3       9 UNK        -0.1964 
     27 N          23.5420  -45.7112  -56.3440 N.am      9 UNK        -0.4231 
     28 C          24.0943  -46.6151  -57.1683 C.2       9 UNK         0.5014 
     29 O          24.1344  -46.5098  -58.3978 O.2       9 UNK        -0.5270 
     30 CA         24.7021  -47.8468  -56.4911 C.3       8 UNK         0.0284 
     31 CB         23.6179  -48.8990  -56.1920 C.3       8 UNK        -0.1977 
     32 N          25.7283  -48.4209  -57.3576 N.am      8 UNK        -0.4342 
     33 C          26.7745  -49.1353  -56.9287 C.2       8 UNK         0.5039 
     34 O          26.9600  -49.4080  -55.7394 O.2       8 UNK        -0.5547 
     35 CA         27.7539  -49.6498  -57.9997 C.3       7 UNK         0.0281 
     36 CB         28.2926  -48.5171  -58.8927 C.3       7 UNK        -0.1963 
     37 N          28.8922  -50.2936  -57.3471 N.am      7 UNK        -0.4444 
     38 C          29.2408  -51.5818  -57.4489 C.2       7 UNK         0.5104 
     39 O          28.6549  -52.3895  -58.1727 O.2       7 UNK        -0.5100 
     40 CA         30.4344  -52.0563  -56.5878 C.3       6 UNK         0.0396 
     41 CB         31.1743  -53.2658  -57.1975 C.3       6 UNK        -0.1801 
     42 N          31.3701  -50.9801  -56.2372 N.am      6 UNK        -0.4747 
     43 C          32.1132  -50.2371  -57.0771 C.2       6 UNK         0.5012 
     44 O          32.2118  -50.4762  -58.2818 O.2       6 UNK        -0.5003 
     45 CA         32.8508  -49.0099  -56.4806 C.3       5 UNK         0.0782 
     46 C46        33.0202  -47.8673  -57.5221 C.3       11 UNK        -0.0868 
     47 S47        34.0614  -46.4957  -56.9122 S.3       11 UNK        -0.2515 
     48 C48        33.1369  -45.0311  -57.4813 C.3       11 UNK         0.0199 
     49 N          32.2697  -48.5495  -55.2106 N.am      5 UNK        -0.4607 
     50 C          31.0128  -48.1215  -55.0123 C.2       4 UNK         0.5031 
     51 O          30.1645  -48.0838  -55.9026 O.2       4 UNK        -0.5119 
     52 CA         30.6241  -47.7610  -53.5624 C.3       4 UNK         0.0263 
     53 CB         29.0977  -47.7193  -53.3446 C.3       4 UNK        -0.1967 
     54 N          31.2596  -48.6309  -52.5619 N.am      4 UNK        -0.4237 
     55 C          31.2408  -49.9746  -52.5352 C.2       3 UNK         0.4908 
     56 O          30.5878  -50.6658  -53.3193 O.2       3 UNK        -0.5102 
     57 CA         32.1529  -50.6626  -51.4971 C.3       3 UNK         0.0241 
     58 CB         32.5406  -52.0952  -51.9235 C.3       3 UNK        -0.1971 
     59 N          33.3635  -49.8990  -51.1551 N.am      3 UNK        -0.4139 
     60 C          34.2959  -49.4259  -51.9970 C.2       2 UNK         0.5016 
     61 O          34.2292  -49.5023  -53.2263 O.2       2 UNK        -0.5319 
     62 CA         35.4867  -48.6990  -51.3532 C.3       2 UNK         0.0286 
     63 CB         36.8197  -49.1585  -51.9693 C.3       2 UNK        -0.1963 
     64 N          35.3644  -47.2482  -51.5025 N.am      2 UNK        -0.4790 
     65 C          34.4556  -46.4846  -50.8810 C.2       1 UNK         0.5024 
     66 O          33.5963  -46.9302  -50.1158 O.2       1 UNK        -0.4888 
     67 H67        33.5992  -42.8659  -47.8891 H         1 UNK         0.0892 
     68 H68        34.5603  -43.9071  -46.8373 H         1 UNK         0.0892 
     69 H69        35.2746  -42.4464  -47.5267 H         1 UNK         0.0892 
     70 H70        33.3404  -43.7662  -49.9277 H         1 UNK         0.3107 
     71 H71        35.5443  -44.7491  -51.4846 H         1 UNK         0.0773 
     72 H72        33.9437  -43.6152  -52.7485 H         1 UNK         0.0680 
     73 H73        33.6818  -45.2792  -53.1794 H         1 UNK         0.0680 
     74 H74        31.9886  -42.3662  -53.2466 H         1 UNK         0.0650 
     75 H75        30.3401  -42.7269  -52.8107 H         1 UNK         0.0650 
     76 H76        33.1268  -43.7882  -55.0671 H         1 UNK         0.1397 
     77 H77        30.5040  -45.6167  -57.9143 H         1 UNK         0.1363 
     78 H78        28.9229  -44.0368  -54.2562 H         1 UNK         0.1355 
     79 H79        27.3978  -44.8728  -55.8899 H         1 UNK         0.0707 
     80 H80        28.1013  -46.3873  -56.3929 H         1 UNK         0.0707 
     81 H81        27.5266  -42.7759  -57.2200 H         1 UNK         0.1034 
     82 H82        27.9548  -42.6254  -58.8942 H         1 UNK         0.1034 
     83 H83        25.6280  -41.8449  -58.3875 H         1 UNK         0.0482 
     84 H84        24.5430  -44.9217  -59.7467 H         1 UNK         0.3460 
     85 H85        24.6419  -44.3914  -61.4124 H         1 UNK         0.3460 
     86 H86        25.3203  -44.4624  -57.2172 H         1 UNK         0.2989 
     87 H87        22.5610  -43.9974  -55.7577 H         1 UNK         0.0559 
     88 H88        20.8541  -43.9648  -57.5440 H         1 UNK         0.0848 
     89 H89        21.6449  -45.2916  -58.3805 H         1 UNK         0.0848 
     90 H90        20.8979  -45.5547  -56.8054 H         1 UNK         0.0848 
     91 H91        23.5919  -45.8968  -55.3510 H         1 UNK         0.3144 
     92 H92        25.1643  -47.5245  -55.5551 H         1 UNK         0.0727 
     93 H93        24.0355  -49.7636  -55.6757 H         1 UNK         0.0790 
     94 H94        23.1405  -49.2540  -57.1063 H         1 UNK         0.0790 
     95 H95        22.8353  -48.4893  -55.5522 H         1 UNK         0.0790 
     96 H96        25.6341  -48.1749  -58.3359 H         1 UNK         0.3215 
     97 H97        27.2109  -50.3640  -58.6219 H         1 UNK         0.0863 
     98 H98        27.4929  -48.0002  -59.4237 H         1 UNK         0.0808 
     99 H99        28.8372  -47.7736  -58.3101 H         1 UNK         0.0808 
    100 H100       28.9769  -48.9060  -59.6468 H         1 UNK         0.0808 
    101 H101       29.3916  -49.6970  -56.6909 H         1 UNK         0.3118 
    102 H102       30.0018  -52.3842  -55.6416 H         1 UNK         0.0546 
    103 H103       30.5060  -54.1219  -57.2972 H         1 UNK         0.0828 
    104 H104       32.0076  -53.5798  -56.5692 H         1 UNK         0.0828 
    105 H105       31.5652  -53.0454  -58.1909 H         1 UNK         0.0828 
    106 H106       31.3282  -50.6915  -55.2641 H         1 UNK         0.3005 
    107 H107       33.8483  -49.3753  -56.2303 H         1 UNK         0.1257 
    108 H108       32.0438  -47.4891  -57.8267 H         1 UNK         0.0775 
    109 H109       33.4946  -48.2405  -58.4314 H         1 UNK         0.0775 
    110 H110       33.8097  -44.1722  -57.4847 H         1 UNK         0.0840 
    111 H111       32.8238  -45.1723  -58.5170 H         1 UNK         0.0840 
    112 H112       32.8886  -48.6379  -54.4096 H         1 UNK         0.2987 
    113 H113       31.0110  -46.7562  -53.3962 H         1 UNK         0.0785 
    114 H114       28.6274  -46.9945  -54.0091 H         1 UNK         0.0798 
    115 H115       28.8496  -47.4301  -52.3237 H         1 UNK         0.0798 
    116 H116       28.6366  -48.6873  -53.5443 H         1 UNK         0.0798 
    117 H117       31.8380  -48.1609  -51.8782 H         1 UNK         0.3079 
    118 H118       31.5641  -50.7353  -50.5815 H         1 UNK         0.0794 
    119 H119       31.6569  -52.7208  -52.0561 H         1 UNK         0.0786 
    120 H120       33.1653  -52.5782  -51.1722 H         1 UNK         0.0786 
    121 H121       33.0874  -52.0994  -52.8674 H         1 UNK         0.0786 
    122 H122       33.4864  -49.7107  -50.1689 H         1 UNK         0.3032 
    123 H123       35.5123  -48.9357  -50.2868 H         1 UNK         0.1094 
    124 H124       37.6699  -48.6971  -51.4664 H         1 UNK         0.0794 
    125 H125       36.9383  -50.2391  -51.8783 H         1 UNK         0.0794 
    126 H126       36.8838  -48.9131  -53.0304 H         1 UNK         0.0794 
    127 H127       36.0147  -46.8104  -52.1397 H         1 UNK         0.3016 
@<TRIPOS>BOND
     1    1    2 1    
     2    1   67 1    
     3    1   68 1    
     4    1   69 1    
     5    2    3 2    
     6    2    4 am   BACKBONE|DICT|INTERRES
     7    4    5 1    
     8    4   70 1    
     9    5    6 1    
    10    5   65 1    
    11    5   71 1    
    12    6    7 1    
    13    6   72 1    
    14    6   73 1    
    15    7    8 1    
    16    8    9 1    
    17    8   74 1    
    18    8   75 1    
    19    9   10 ar   
    20    9   14 ar   
    21   10   11 ar   
    22   10   76 1    
    23   11   12 ar   
    24   11   48 1    
    25   12   13 ar   
    26   12   77 1    
    27   13   14 ar   
    28   13   15 1    
    29   14   78 1    
    30   15   16 1    
    31   15   79 1    
    32   15   80 1    
    33   16   17 1    
    34   17   18 1    
    35   17   81 1    
    36   17   82 1    
    37   18   19 1    
    38   18   22 1    
    39   18   83 1    
    40   19   20 am   BACKBONE|DICT|INTERRES
    41   19   21 2    
    42   20   84 1    
    43   20   85 1    
    44   22   23 am   BACKBONE|DICT|INTERRES
    45   22   86 1    
    46   23   24 2    
    47   23   25 1    
    48   25   26 1    
    49   25   27 1    
    50   25   87 1    
    51   26   88 1    
    52   26   89 1    
    53   26   90 1    
    54   27   28 am   BACKBONE|DICT|INTERRES
    55   27   91 1    
    56   28   29 2    
    57   28   30 1    
    58   30   31 1    
    59   30   32 1    
    60   30   92 1    
    61   31   93 1    
    62   31   94 1    
    63   31   95 1    
    64   32   33 am   BACKBONE|DICT|INTERRES
    65   32   96 1    
    66   33   34 2    
    67   33   35 1    
    68   35   36 1    
    69   35   37 1    
    70   35   97 1    
    71   36   98 1    
    72   36   99 1    
    73   36  100 1    
    74   37   38 am   BACKBONE|DICT|INTERRES
    75   37  101 1    
    76   38   39 2    
    77   38   40 1    
    78   40   41 1    
    79   40   42 1    
    80   40  102 1    
    81   41  103 1    
    82   41  104 1    
    83   41  105 1    
    84   42   43 am   BACKBONE|DICT|INTERRES
    85   42  106 1    
    86   43   44 2    
    87   43   45 1    
    88   45   46 1    
    89   45   49 1    
    90   45  107 1    
    91   46   47 1    
    92   46  108 1    
    93   46  109 1    
    94   47   48 1    
    95   48  110 1    
    96   48  111 1    
    97   49   50 am   BACKBONE|DICT|INTERRES
    98   49  112 1    
    99   50   51 2    
   100   50   52 1    
   101   52   53 1    
   102   52   54 1    
   103   52  113 1    
   104   53  114 1    
   105   53  115 1    
   106   53  116 1    
   107   54   55 am   BACKBONE|DICT|INTERRES
   108   54  117 1    
   109   55   56 2    
   110   55   57 1    
   111   57   58 1    
   112   57   59 1    
   113   57  118 1    
   114   58  119 1    
   115   58  120 1    
   116   58  121 1    
   117   59   60 am   BACKBONE|DICT|INTERRES
   118   59  122 1    
   119   60   61 2    
   120   60   62 1    
   121   62   63 1    
   122   62   64 1    
   123   62  123 1    
   124   63  124 1    
   125   63  125 1    
   126   63  126 1    
   127   64   65 am   BACKBONE|DICT|INTERRES
   128   64  127 1    
   129   65   66 2    
@<TRIPOS>SUBSTRUCTURE
     1 UNK         1 GROUP             0       ****    0 ROOT    
