@<TRIPOS>MOLECULE
3R134
127   129    1
SMALL
USER_CHARGES


@<TRIPOS>ATOM
      1 CA         34.7489  -48.4788  -49.5196 C.3       0 UNK        -0.1968 
      2 C          34.4914  -47.8638  -50.8869 C.2       0 UNK         0.4852 
      3 O          34.3705  -48.5975  -51.8679 O.2       0 UNK        -0.5359 
      4 N          34.3940  -46.5276  -50.9489 N.am      1 UNK        -0.4300 
      5 CA         34.1619  -45.7180  -52.1544 C.3       1 UNK         0.0863 
      6 C6         34.1117  -44.2081  -51.7933 C.3       11 UNK        -0.0953 
      7 S7         34.6406  -43.1117  -53.1471 S.3       11 UNK        -0.2369 
      8 C8         33.1400  -42.1181  -53.4625 C.3       11 UNK         0.0226 
      9 C9         32.1886  -42.7759  -54.4549 C.ar      11 UNK        -0.0699 
     10 C10        32.6654  -43.1902  -55.7027 C.ar      11 UNK        -0.0804 
     11 C11        31.8069  -43.7789  -56.6316 C.ar      11 UNK        -0.0871 
     12 C12        30.4531  -43.9191  -56.3233 C.ar      11 UNK        -0.1008 
     13 C13        29.9589  -43.5129  -55.0830 C.ar      11 UNK        -0.0735 
     14 C14        30.8317  -42.9427  -54.1481 C.ar      11 UNK        -0.0945 
     15 C15        28.4919  -43.7435  -54.7502 C.3       11 UNK         0.0169 
     16 S16        27.4679  -42.2585  -54.9806 S.3       11 UNK        -0.2669 
     17 C17        27.4678  -42.0199  -56.7929 C.3       11 UNK        -0.0850 
     18 CA         26.1539  -42.5203  -57.4694 C.3       10 UNK         0.0855 
     19 C          25.8847  -41.8741  -58.8665 C.2       10 UNK         0.5543 
     20 N          26.0555  -40.5657  -59.0023 N.am      10 UNK        -0.7343 
     21 O          25.4665  -42.5270  -59.8212 O.2       10 UNK        -0.5027 
     22 N          26.0359  -43.9912  -57.4707 N.am      10 UNK        -0.4495 
     23 C          26.7865  -44.8601  -58.1629 C.2       10 UNK         0.4903 
     24 O          27.7885  -44.5472  -58.8083 O.2       10 UNK        -0.4860 
     25 CA         26.3446  -46.3361  -58.0967 C.3       9 UNK         0.0227 
     26 CB         26.9717  -47.1911  -59.2128 C.3       9 UNK        -0.1964 
     27 N          26.6687  -46.9174  -56.7918 N.am      9 UNK        -0.4231 
     28 C          25.9616  -46.6889  -55.6760 C.2       9 UNK         0.5014 
     29 O          24.8955  -46.0677  -55.6676 O.2       9 UNK        -0.5270 
     30 CA         26.5747  -47.1712  -54.3521 C.3       8 UNK         0.0284 
     31 CB         25.6436  -46.9651  -53.1365 C.3       8 UNK        -0.1977 
     32 N          27.0917  -48.5392  -54.4054 N.am      8 UNK        -0.4342 
     33 C          26.4063  -49.6839  -54.4976 C.2       8 UNK         0.5039 
     34 O          25.1824  -49.7571  -54.6265 O.2       8 UNK        -0.5547 
     35 CA         27.2636  -50.9618  -54.3998 C.3       7 UNK         0.0281 
     36 CB         26.4235  -52.2427  -54.2034 C.3       7 UNK        -0.1963 
     37 N          28.1834  -51.1011  -55.5351 N.am      7 UNK        -0.4444 
     38 C          27.8511  -51.2152  -56.8294 C.2       7 UNK         0.5104 
     39 O          26.6918  -51.2593  -57.2446 O.2       7 UNK        -0.5100 
     40 CA         29.0208  -51.3119  -57.8313 C.3       6 UNK         0.0396 
     41 CB         28.5653  -51.1075  -59.2913 C.3       6 UNK        -0.1801 
     42 N          30.1594  -50.4286  -57.5495 N.am      6 UNK        -0.4747 
     43 C          30.1414  -49.1046  -57.3328 C.2       6 UNK         0.5012 
     44 O          29.1152  -48.4506  -57.1338 O.2       6 UNK        -0.5003 
     45 CA         31.5144  -48.4012  -57.3690 C.3       5 UNK         0.0782 
     46 C46        31.3821  -46.8646  -57.3364 C.3       11 UNK        -0.0868 
     47 S47        32.9404  -46.0205  -57.7655 S.3       11 UNK        -0.2515 
     48 C48        32.3484  -44.3079  -57.9493 C.3       11 UNK         0.0199 
     49 N          32.3775  -48.8913  -56.2925 N.am      5 UNK        -0.4607 
     50 C          33.0969  -50.0180  -56.3428 C.2       4 UNK         0.5031 
     51 O          33.1346  -50.7582  -57.3265 O.2       4 UNK        -0.5119 
     52 CA         33.8613  -50.4104  -55.0690 C.3       4 UNK         0.0263 
     53 CB         35.1784  -49.6255  -54.9646 C.3       4 UNK        -0.1967 
     54 N          33.0725  -50.2092  -53.8515 N.am      4 UNK        -0.4237 
     55 C          31.9212  -50.8382  -53.5690 C.2       3 UNK         0.4908 
     56 O          31.4031  -51.6963  -54.2850 O.2       3 UNK        -0.5102 
     57 CA         31.2010  -50.4027  -52.2842 C.3       3 UNK         0.0241 
     58 CB         31.8656  -51.0136  -51.0398 C.3       3 UNK        -0.1971 
     59 N          31.1302  -48.9453  -52.1562 N.am      3 UNK        -0.4139 
     60 C          30.4310  -48.1524  -52.9802 C.2       2 UNK         0.5016 
     61 O          29.7642  -48.5710  -53.9243 O.2       2 UNK        -0.5319 
     62 CA         30.4767  -46.6406  -52.7122 C.3       2 UNK         0.0286 
     63 CB         29.3814  -46.2356  -51.7140 C.3       2 UNK        -0.1963 
     64 N          31.7696  -46.1892  -52.2036 N.am      2 UNK        -0.4790 
     65 C          32.9010  -46.1664  -52.9216 C.2       1 UNK         0.5024 
     66 O          32.9809  -46.5374  -54.0932 O.2       1 UNK        -0.4888 
     67 H67        35.6157  -49.1372  -49.5639 H         1 UNK         0.0892 
     68 H68        34.9392  -47.7214  -48.7597 H         1 UNK         0.0892 
     69 H69        33.8891  -49.0686  -49.2039 H         1 UNK         0.0892 
     70 H70        34.5035  -46.0006  -50.0943 H         1 UNK         0.3107 
     71 H71        35.0194  -45.8949  -52.8073 H         1 UNK         0.0773 
     72 H72        34.8016  -44.0019  -50.9732 H         1 UNK         0.0680 
     73 H73        33.1299  -43.9110  -51.4207 H         1 UNK         0.0680 
     74 H74        32.6382  -41.8942  -52.5200 H         1 UNK         0.0650 
     75 H75        33.4484  -41.1571  -53.8761 H         1 UNK         0.0650 
     76 H76        33.7138  -43.0769  -55.9421 H         1 UNK         0.1397 
     77 H77        29.7887  -44.3811  -57.0405 H         1 UNK         0.1363 
     78 H78        30.4517  -42.6282  -53.1858 H         1 UNK         0.1355 
     79 H79        28.4015  -44.0718  -53.7143 H         1 UNK         0.0707 
     80 H80        28.0880  -44.5497  -55.3619 H         1 UNK         0.0707 
     81 H81        28.3420  -42.4798  -57.2501 H         1 UNK         0.1034 
     82 H82        27.6056  -40.9488  -56.9407 H         1 UNK         0.1034 
     83 H83        25.3177  -42.1783  -56.8585 H         1 UNK         0.0482 
     84 H84        25.8628  -40.1409  -59.8962 H         1 UNK         0.3460 
     85 H85        26.3477  -39.9891  -58.2296 H         1 UNK         0.3460 
     86 H86        25.2656  -44.3716  -56.9331 H         1 UNK         0.2989 
     87 H87        25.2622  -46.3666  -58.2393 H         1 UNK         0.0559 
     88 H88        26.6878  -46.8135  -60.1957 H         1 UNK         0.0848 
     89 H89        26.6358  -48.2262  -59.1520 H         1 UNK         0.0848 
     90 H90        28.0610  -47.1873  -59.1682 H         1 UNK         0.0848 
     91 H91        27.5371  -47.4477  -56.7387 H         1 UNK         0.3144 
     92 H92        27.4506  -46.5433  -54.1945 H         1 UNK         0.0727 
     93 H93        26.1039  -47.3160  -52.2134 H         1 UNK         0.0790 
     94 H94        24.6969  -47.4923  -53.2580 H         1 UNK         0.0790 
     95 H95        25.4094  -45.9084  -53.0014 H         1 UNK         0.0790 
     96 H96        28.1108  -48.6117  -54.3374 H         1 UNK         0.3215 
     97 H97        27.8888  -50.8485  -53.5125 H         1 UNK         0.0863 
     98 H98        27.0595  -53.1202  -54.0884 H         1 UNK         0.0808 
     99 H99        25.7491  -52.4242  -55.0407 H         1 UNK         0.0808 
    100 H100       25.8086  -52.1676  -53.3057 H         1 UNK         0.0808 
    101 H101       29.1696  -51.0352  -55.3139 H         1 UNK         0.3118 
    102 H102       29.4013  -52.3306  -57.7460 H         1 UNK         0.0546 
    103 H103       28.1566  -50.1092  -59.4475 H         1 UNK         0.0828 
    104 H104       27.7921  -51.8249  -59.5690 H         1 UNK         0.0828 
    105 H105       29.3921  -51.2433  -59.9882 H         1 UNK         0.0828 
    106 H106       31.0755  -50.8607  -57.6199 H         1 UNK         0.3005 
    107 H107       31.9637  -48.6650  -58.3296 H         1 UNK         0.1257 
    108 H108       30.6206  -46.5252  -58.0419 H         1 UNK         0.0775 
    109 H109       31.0596  -46.5460  -56.3436 H         1 UNK         0.0775 
    110 H110       33.1710  -43.6803  -58.2956 H         1 UNK         0.0840 
    111 H111       31.5819  -44.2642  -58.7249 H         1 UNK         0.0840 
    112 H112       32.4046  -48.3284  -55.4514 H         1 UNK         0.2987 
    113 H113       34.0989  -51.4738  -55.1382 H         1 UNK         0.0785 
    114 H114       35.7685  -49.9552  -54.1092 H         1 UNK         0.0798 
    115 H115       35.0011  -48.5547  -54.8529 H         1 UNK         0.0798 
    116 H116       35.7905  -49.7661  -55.8563 H         1 UNK         0.0798 
    117 H117       33.4408  -49.5375  -53.1790 H         1 UNK         0.3079 
    118 H118       30.1774  -50.7797  -52.3357 H         1 UNK         0.0794 
    119 H119       31.8679  -52.1028  -51.0984 H         1 UNK         0.0786 
    120 H120       31.3320  -50.7407  -50.1293 H         1 UNK         0.0786 
    121 H121       32.9021  -50.6944  -50.9316 H         1 UNK         0.0786 
    122 H122       31.6818  -48.5172  -51.4280 H         1 UNK         0.3032 
    123 H123       30.2902  -46.1364  -53.6634 H         1 UNK         0.1094 
    124 H124       29.3320  -45.1531  -51.5973 H         1 UNK         0.0794 
    125 H125       28.4002  -46.5695  -52.0466 H         1 UNK         0.0794 
    126 H126       29.5502  -46.6711  -50.7286 H         1 UNK         0.0794 
    127 H127       31.8028  -45.8864  -51.2409 H         1 UNK         0.3016 
@<TRIPOS>BOND
     1    1    2 1    
     2    1   67 1    
     3    1   68 1    
     4    1   69 1    
     5    2    3 2    
     6    2    4 am   BACKBONE|DICT|INTERRES
     7    4    5 1    
     8    4   70 1    
     9    5    6 1    
    10    5   65 1    
    11    5   71 1    
    12    6    7 1    
    13    6   72 1    
    14    6   73 1    
    15    7    8 1    
    16    8    9 1    
    17    8   74 1    
    18    8   75 1    
    19    9   10 ar   
    20    9   14 ar   
    21   10   11 ar   
    22   10   76 1    
    23   11   12 ar   
    24   11   48 1    
    25   12   13 ar   
    26   12   77 1    
    27   13   14 ar   
    28   13   15 1    
    29   14   78 1    
    30   15   16 1    
    31   15   79 1    
    32   15   80 1    
    33   16   17 1    
    34   17   18 1    
    35   17   81 1    
    36   17   82 1    
    37   18   19 1    
    38   18   22 1    
    39   18   83 1    
    40   19   20 am   BACKBONE|DICT|INTERRES
    41   19   21 2    
    42   20   84 1    
    43   20   85 1    
    44   22   23 am   BACKBONE|DICT|INTERRES
    45   22   86 1    
    46   23   24 2    
    47   23   25 1    
    48   25   26 1    
    49   25   27 1    
    50   25   87 1    
    51   26   88 1    
    52   26   89 1    
    53   26   90 1    
    54   27   28 am   BACKBONE|DICT|INTERRES
    55   27   91 1    
    56   28   29 2    
    57   28   30 1    
    58   30   31 1    
    59   30   32 1    
    60   30   92 1    
    61   31   93 1    
    62   31   94 1    
    63   31   95 1    
    64   32   33 am   BACKBONE|DICT|INTERRES
    65   32   96 1    
    66   33   34 2    
    67   33   35 1    
    68   35   36 1    
    69   35   37 1    
    70   35   97 1    
    71   36   98 1    
    72   36   99 1    
    73   36  100 1    
    74   37   38 am   BACKBONE|DICT|INTERRES
    75   37  101 1    
    76   38   39 2    
    77   38   40 1    
    78   40   41 1    
    79   40   42 1    
    80   40  102 1    
    81   41  103 1    
    82   41  104 1    
    83   41  105 1    
    84   42   43 am   BACKBONE|DICT|INTERRES
    85   42  106 1    
    86   43   44 2    
    87   43   45 1    
    88   45   46 1    
    89   45   49 1    
    90   45  107 1    
    91   46   47 1    
    92   46  108 1    
    93   46  109 1    
    94   47   48 1    
    95   48  110 1    
    96   48  111 1    
    97   49   50 am   BACKBONE|DICT|INTERRES
    98   49  112 1    
    99   50   51 2    
   100   50   52 1    
   101   52   53 1    
   102   52   54 1    
   103   52  113 1    
   104   53  114 1    
   105   53  115 1    
   106   53  116 1    
   107   54   55 am   BACKBONE|DICT|INTERRES
   108   54  117 1    
   109   55   56 2    
   110   55   57 1    
   111   57   58 1    
   112   57   59 1    
   113   57  118 1    
   114   58  119 1    
   115   58  120 1    
   116   58  121 1    
   117   59   60 am   BACKBONE|DICT|INTERRES
   118   59  122 1    
   119   60   61 2    
   120   60   62 1    
   121   62   63 1    
   122   62   64 1    
   123   62  123 1    
   124   63  124 1    
   125   63  125 1    
   126   63  126 1    
   127   64   65 am   BACKBONE|DICT|INTERRES
   128   64  127 1    
   129   65   66 2    
@<TRIPOS>SUBSTRUCTURE
     1 UNK         1 GROUP             0       ****    0 ROOT    
