@<TRIPOS>MOLECULE
3R134
127   129    1
SMALL
USER_CHARGES


@<TRIPOS>ATOM
      1 CA         37.4694  -43.8220  -53.9967 C.3       0 UNK        -0.1968 
      2 C          36.0187  -44.2413  -53.8154 C.2       0 UNK         0.4852 
      3 O          35.5478  -45.1397  -54.5157 O.2       0 UNK        -0.5359 
      4 N          35.3068  -43.6168  -52.8676 N.am      1 UNK        -0.4300 
      5 CA         33.8837  -43.8361  -52.5678 C.3       1 UNK         0.0863 
      6 C6         33.2461  -42.5932  -51.8929 C.3       11 UNK        -0.0953 
      7 S7         33.2169  -41.1631  -53.0276 S.3       11 UNK        -0.2369 
      8 C8         31.5030  -41.2103  -53.6497 C.3       11 UNK         0.0226 
      9 C9         31.1774  -42.5275  -54.3421 C.ar      11 UNK        -0.0699 
     10 C10        30.4429  -43.5098  -53.6698 C.ar      11 UNK        -0.0804 
     11 C11        30.1649  -44.7321  -54.2855 C.ar      11 UNK        -0.0871 
     12 C12        30.6243  -44.9716  -55.5819 C.ar      11 UNK        -0.1008 
     13 C13        31.3326  -43.9873  -56.2764 C.ar      11 UNK        -0.0735 
     14 C14        31.6131  -42.7682  -55.6495 C.ar      11 UNK        -0.0945 
     15 C15        31.7593  -44.2363  -57.7154 C.3       11 UNK         0.0169 
     16 S16        30.3232  -44.4858  -58.8122 S.3       11 UNK        -0.2669 
     17 C17        29.4602  -42.8818  -58.6736 C.3       11 UNK        -0.0850 
     18 CA         28.3278  -42.8684  -57.6096 C.3       10 UNK         0.0855 
     19 C          27.6864  -41.4550  -57.5427 C.2       10 UNK         0.5543 
     20 N          28.1555  -40.6035  -56.6411 N.am      10 UNK        -0.7343 
     21 O          26.8080  -41.1127  -58.3323 O.2       10 UNK        -0.5027 
     22 N          27.3514  -43.9465  -57.8343 N.am      10 UNK        -0.4495 
     23 C          26.2910  -44.2134  -57.0584 C.2       10 UNK         0.4903 
     24 O          26.0199  -43.6092  -56.0203 O.2       10 UNK        -0.4860 
     25 CA         25.3746  -45.3607  -57.5155 C.3       9 UNK         0.0227 
     26 CB         24.3650  -44.8607  -58.5619 C.3       9 UNK        -0.1964 
     27 N          26.1203  -46.5006  -58.0555 N.am      9 UNK        -0.4231 
     28 C          26.7908  -47.3837  -57.3043 C.2       9 UNK         0.5014 
     29 O          26.8430  -47.3462  -56.0735 O.2       9 UNK        -0.5270 
     30 CA         27.5516  -48.4848  -58.0570 C.3       8 UNK         0.0284 
     31 CB         29.0678  -48.2677  -57.9350 C.3       8 UNK        -0.1977 
     32 N          27.2112  -49.8140  -57.5481 N.am      8 UNK        -0.4342 
     33 C          26.0482  -50.4410  -57.7734 C.2       8 UNK         0.5039 
     34 O          25.1326  -49.9563  -58.4402 O.2       8 UNK        -0.5547 
     35 CA         25.8725  -51.8482  -57.1813 C.3       7 UNK         0.0281 
     36 CB         26.6000  -52.8907  -58.0474 C.3       7 UNK        -0.1963 
     37 N          26.3740  -51.9278  -55.8087 N.am      7 UNK        -0.4444 
     38 C          25.6435  -52.2632  -54.7352 C.2       7 UNK         0.5104 
     39 O          24.4517  -52.5703  -54.7835 O.2       7 UNK        -0.5100 
     40 CA         26.3565  -52.2653  -53.3659 C.3       6 UNK         0.0396 
     41 CB         26.8012  -53.6895  -52.9970 C.3       6 UNK        -0.1801 
     42 N          27.5182  -51.3741  -53.3233 N.am      6 UNK        -0.4747 
     43 C          27.4511  -50.0367  -53.3899 C.2       6 UNK         0.5012 
     44 O          26.3937  -49.4140  -53.2909 O.2       6 UNK        -0.5003 
     45 CA         28.7625  -49.2597  -53.6466 C.3       5 UNK         0.0782 
     46 C46        29.0937  -48.3179  -52.4643 C.3       11 UNK        -0.0868 
     47 S47        30.3868  -47.1194  -52.9191 S.3       11 UNK        -0.2515 
     48 C48        29.3390  -45.7858  -53.5717 C.3       11 UNK         0.0199 
     49 N          29.9197  -50.0917  -54.0154 N.am      5 UNK        -0.4607 
     50 C          30.0249  -50.8558  -55.1101 C.2       4 UNK         0.5031 
     51 O          29.1007  -51.0296  -55.9067 O.2       4 UNK        -0.5119 
     52 CA         31.3808  -51.5504  -55.3267 C.3       4 UNK         0.0263 
     53 CB         31.4519  -52.3126  -56.6675 C.3       4 UNK        -0.1967 
     54 N          32.5144  -50.6272  -55.1855 N.am      4 UNK        -0.4237 
     55 C          32.7753  -49.5379  -55.9227 C.2       3 UNK         0.4908 
     56 O          32.0587  -49.1322  -56.8377 O.2       3 UNK        -0.5102 
     57 CA         34.0681  -48.7800  -55.5708 C.3       3 UNK         0.0241 
     58 CB         34.4811  -47.7833  -56.6703 C.3       3 UNK        -0.1971 
     59 N          33.9596  -48.0543  -54.3058 N.am      3 UNK        -0.4139 
     60 C          33.9914  -48.5940  -53.0776 C.2       2 UNK         0.5016 
     61 O          34.0511  -49.8089  -52.8776 O.2       2 UNK        -0.5319 
     62 CA         33.9806  -47.6280  -51.8764 C.3       2 UNK         0.0286 
     63 CB         35.0459  -47.9995  -50.8282 C.3       2 UNK        -0.1963 
     64 N          34.1863  -46.2470  -52.3121 N.am      2 UNK        -0.4790 
     65 C          33.6306  -45.1502  -51.7909 C.2       1 UNK         0.5024 
     66 O          32.9502  -45.1548  -50.7637 O.2       1 UNK        -0.4888 
     67 H67        37.7517  -43.0222  -53.3123 H         1 UNK         0.0892 
     68 H68        38.1296  -44.6705  -53.8194 H         1 UNK         0.0892 
     69 H69        37.6319  -43.4702  -55.0151 H         1 UNK         0.0892 
     70 H70        35.7550  -42.9040  -52.3097 H         1 UNK         0.3107 
     71 H71        33.3745  -43.9816  -53.5223 H         1 UNK         0.0773 
     72 H72        33.8015  -42.3179  -50.9949 H         1 UNK         0.0680 
     73 H73        32.2261  -42.7940  -51.5622 H         1 UNK         0.0680 
     74 H74        30.8164  -41.0304  -52.8210 H         1 UNK         0.0650 
     75 H75        31.3594  -40.3855  -54.3490 H         1 UNK         0.0650 
     76 H76        30.0917  -43.3254  -52.6637 H         1 UNK         0.1397 
     77 H77        30.4017  -45.9137  -56.0651 H         1 UNK         0.1363 
     78 H78        32.1702  -42.0049  -56.1755 H         1 UNK         0.1355 
     79 H79        32.3647  -43.4118  -58.0950 H         1 UNK         0.0707 
     80 H80        32.3899  -45.1254  -57.7516 H         1 UNK         0.0707 
     81 H81        30.1965  -42.1053  -58.4566 H         1 UNK         0.1034 
     82 H82        29.0542  -42.6377  -59.6573 H         1 UNK         0.1034 
     83 H83        28.7700  -43.0674  -56.6333 H         1 UNK         0.0482 
     84 H84        28.8787  -40.8783  -55.9952 H         1 UNK         0.3460 
     85 H85        27.7653  -39.6754  -56.5929 H         1 UNK         0.3460 
     86 H86        27.4997  -44.5034  -58.6614 H         1 UNK         0.2989 
     87 H87        24.8105  -45.7027  -56.6447 H         1 UNK         0.0559 
     88 H88        24.8576  -44.5152  -59.4717 H         1 UNK         0.0848 
     89 H89        23.7828  -44.0247  -58.1714 H         1 UNK         0.0848 
     90 H90        23.6583  -45.6436  -58.8381 H         1 UNK         0.0848 
     91 H91        26.1180  -46.6164  -59.0590 H         1 UNK         0.3144 
     92 H92        27.2878  -48.4490  -59.1162 H         1 UNK         0.0727 
     93 H93        29.3952  -48.2707  -56.8945 H         1 UNK         0.0790 
     94 H94        29.3619  -47.3096  -58.3635 H         1 UNK         0.0790 
     95 H95        29.6270  -49.0427  -58.4595 H         1 UNK         0.0790 
     96 H96        27.9224  -50.2717  -56.9800 H         1 UNK         0.3215 
     97 H97        24.8044  -52.0748  -57.2084 H         1 UNK         0.0863 
     98 H98        26.4140  -53.9021  -57.6861 H         1 UNK         0.0808 
     99 H99        27.6793  -52.7309  -58.0527 H         1 UNK         0.0808 
    100 H100       26.2569  -52.8477  -59.0820 H         1 UNK         0.0808 
    101 H101       27.3489  -51.6751  -55.6717 H         1 UNK         0.3118 
    102 H102       25.6378  -51.9266  -52.6166 H         1 UNK         0.0546 
    103 H103       27.5296  -54.0831  -53.7072 H         1 UNK         0.0828 
    104 H104       25.9512  -54.3733  -52.9908 H         1 UNK         0.0828 
    105 H105       27.2474  -53.7222  -52.0030 H         1 UNK         0.0828 
    106 H106       28.4282  -51.8058  -53.3925 H         1 UNK         0.3005 
    107 H107       28.5447  -48.6379  -54.5174 H         1 UNK         0.1257 
    108 H108       29.4335  -48.8906  -51.5996 H         1 UNK         0.0775 
    109 H109       28.2115  -47.7658  -52.1329 H         1 UNK         0.0775 
    110 H110       28.6071  -46.1964  -54.2690 H         1 UNK         0.0840 
    111 H111       28.7684  -45.3415  -52.7547 H         1 UNK         0.0840 
    112 H112       30.7296  -49.9978  -53.4202 H         1 UNK         0.2987 
    113 H113       31.4794  -52.2851  -54.5263 H         1 UNK         0.0785 
    114 H114       30.6766  -53.0778  -56.7230 H         1 UNK         0.0798 
    115 H115       32.4116  -52.8147  -56.7886 H         1 UNK         0.0798 
    116 H116       31.3105  -51.6478  -57.5205 H         1 UNK         0.0798 
    117 H117       33.1369  -50.8000  -54.4011 H         1 UNK         0.3079 
    118 H118       34.8667  -49.5194  -55.4787 H         1 UNK         0.0794 
    119 H119       34.5822  -48.2827  -57.6348 H         1 UNK         0.0786 
    120 H120       35.4412  -47.3186  -56.4440 H         1 UNK         0.0786 
    121 H121       33.7458  -46.9866  -56.7892 H         1 UNK         0.0786 
    122 H122       33.8554  -47.0532  -54.3860 H         1 UNK         0.3032 
    123 H123       32.9931  -47.7167  -51.4180 H         1 UNK         0.1094 
    124 H124       35.0032  -47.3330  -49.9666 H         1 UNK         0.0794 
    125 H125       34.8965  -49.0143  -50.4571 H         1 UNK         0.0794 
    126 H126       36.0526  -47.9468  -51.2442 H         1 UNK         0.0794 
    127 H127       34.7744  -46.1087  -53.1321 H         1 UNK         0.3016 
@<TRIPOS>BOND
     1    1    2 1    
     2    1   67 1    
     3    1   68 1    
     4    1   69 1    
     5    2    3 2    
     6    2    4 am   BACKBONE|DICT|INTERRES
     7    4    5 1    
     8    4   70 1    
     9    5    6 1    
    10    5   65 1    
    11    5   71 1    
    12    6    7 1    
    13    6   72 1    
    14    6   73 1    
    15    7    8 1    
    16    8    9 1    
    17    8   74 1    
    18    8   75 1    
    19    9   10 ar   
    20    9   14 ar   
    21   10   11 ar   
    22   10   76 1    
    23   11   12 ar   
    24   11   48 1    
    25   12   13 ar   
    26   12   77 1    
    27   13   14 ar   
    28   13   15 1    
    29   14   78 1    
    30   15   16 1    
    31   15   79 1    
    32   15   80 1    
    33   16   17 1    
    34   17   18 1    
    35   17   81 1    
    36   17   82 1    
    37   18   19 1    
    38   18   22 1    
    39   18   83 1    
    40   19   20 am   BACKBONE|DICT|INTERRES
    41   19   21 2    
    42   20   84 1    
    43   20   85 1    
    44   22   23 am   BACKBONE|DICT|INTERRES
    45   22   86 1    
    46   23   24 2    
    47   23   25 1    
    48   25   26 1    
    49   25   27 1    
    50   25   87 1    
    51   26   88 1    
    52   26   89 1    
    53   26   90 1    
    54   27   28 am   BACKBONE|DICT|INTERRES
    55   27   91 1    
    56   28   29 2    
    57   28   30 1    
    58   30   31 1    
    59   30   32 1    
    60   30   92 1    
    61   31   93 1    
    62   31   94 1    
    63   31   95 1    
    64   32   33 am   BACKBONE|DICT|INTERRES
    65   32   96 1    
    66   33   34 2    
    67   33   35 1    
    68   35   36 1    
    69   35   37 1    
    70   35   97 1    
    71   36   98 1    
    72   36   99 1    
    73   36  100 1    
    74   37   38 am   BACKBONE|DICT|INTERRES
    75   37  101 1    
    76   38   39 2    
    77   38   40 1    
    78   40   41 1    
    79   40   42 1    
    80   40  102 1    
    81   41  103 1    
    82   41  104 1    
    83   41  105 1    
    84   42   43 am   BACKBONE|DICT|INTERRES
    85   42  106 1    
    86   43   44 2    
    87   43   45 1    
    88   45   46 1    
    89   45   49 1    
    90   45  107 1    
    91   46   47 1    
    92   46  108 1    
    93   46  109 1    
    94   47   48 1    
    95   48  110 1    
    96   48  111 1    
    97   49   50 am   BACKBONE|DICT|INTERRES
    98   49  112 1    
    99   50   51 2    
   100   50   52 1    
   101   52   53 1    
   102   52   54 1    
   103   52  113 1    
   104   53  114 1    
   105   53  115 1    
   106   53  116 1    
   107   54   55 am   BACKBONE|DICT|INTERRES
   108   54  117 1    
   109   55   56 2    
   110   55   57 1    
   111   57   58 1    
   112   57   59 1    
   113   57  118 1    
   114   58  119 1    
   115   58  120 1    
   116   58  121 1    
   117   59   60 am   BACKBONE|DICT|INTERRES
   118   59  122 1    
   119   60   61 2    
   120   60   62 1    
   121   62   63 1    
   122   62   64 1    
   123   62  123 1    
   124   63  124 1    
   125   63  125 1    
   126   63  126 1    
   127   64   65 am   BACKBONE|DICT|INTERRES
   128   64  127 1    
   129   65   66 2    
@<TRIPOS>SUBSTRUCTURE
     1 UNK         1 GROUP             0       ****    0 ROOT    
