@<TRIPOS>MOLECULE
3R134
127   129    1
SMALL
USER_CHARGES


@<TRIPOS>ATOM
      1 CA         34.1926  -46.7647  -50.2295 C.3       0 UNK        -0.1968 
      2 C          35.3285  -46.5800  -51.2243 C.2       0 UNK         0.4852 
      3 O          36.4784  -46.8956  -50.9134 O.2       0 UNK        -0.5359 
      4 N          35.0166  -46.0885  -52.4291 N.am      1 UNK        -0.4300 
      5 CA         35.9394  -45.8470  -53.5467 C.3       1 UNK         0.0863 
      6 C6         35.4073  -44.7332  -54.4924 C.3       11 UNK        -0.0953 
      7 S7         33.6438  -44.9194  -54.9466 S.3       11 UNK        -0.2369 
      8 C8         32.9341  -43.4356  -54.1651 C.3       11 UNK         0.0226 
      9 C9         31.4132  -43.4753  -54.1501 C.ar      11 UNK        -0.0699 
     10 C10        30.7188  -43.4895  -52.9365 C.ar      11 UNK        -0.0804 
     11 C11        29.3208  -43.5136  -52.9173 C.ar      11 UNK        -0.0871 
     12 C12        28.6155  -43.5373  -54.1250 C.ar      11 UNK        -0.1008 
     13 C13        29.3004  -43.5303  -55.3436 C.ar      11 UNK        -0.0735 
     14 C14        30.6970  -43.4848  -55.3501 C.ar      11 UNK        -0.0945 
     15 C15        28.5391  -43.6109  -56.6551 C.3       11 UNK         0.0169 
     16 S16        27.8761  -41.9963  -57.1572 S.3       11 UNK        -0.2669 
     17 C17        27.7322  -42.2131  -58.9660 C.3       11 UNK        -0.0850 
     18 CA         26.4343  -42.9472  -59.3959 C.3       10 UNK         0.0855 
     19 C          26.1490  -42.7516  -60.9141 C.2       10 UNK         0.5543 
     20 N          26.0757  -43.8029  -61.7223 N.am      10 UNK        -0.7343 
     21 O          25.9782  -41.6218  -61.3654 O.2       10 UNK        -0.5027 
     22 N          26.4535  -44.3605  -58.9826 N.am      10 UNK        -0.4495 
     23 C          25.3848  -45.0679  -58.6073 C.2       10 UNK         0.4903 
     24 O          24.2537  -44.5905  -58.5108 O.2       10 UNK        -0.4860 
     25 CA         25.5833  -46.5602  -58.2794 C.3       9 UNK         0.0227 
     26 CB         25.1597  -47.4413  -59.4702 C.3       9 UNK        -0.1964 
     27 N          26.9083  -46.9635  -57.7824 N.am      9 UNK        -0.4231 
     28 C          28.0945  -46.9773  -58.4099 C.2       9 UNK         0.5014 
     29 O          28.2985  -46.4466  -59.5022 O.2       9 UNK        -0.5270 
     30 CA         29.2446  -47.7305  -57.7114 C.3       8 UNK         0.0284 
     31 CB         30.0354  -46.8108  -56.7693 C.3       8 UNK        -0.1977 
     32 N          28.7839  -48.9004  -56.9605 N.am      8 UNK        -0.4342 
     33 C          28.2631  -50.0090  -57.5062 C.2       8 UNK         0.5039 
     34 O          28.1772  -50.2065  -58.7187 O.2       8 UNK        -0.5547 
     35 CA         27.7254  -51.0663  -56.5305 C.3       7 UNK         0.0281 
     36 CB         28.8637  -51.9408  -55.9784 C.3       7 UNK        -0.1963 
     37 N          26.9940  -50.4438  -55.4252 N.am      7 UNK        -0.4444 
     38 C          25.7246  -50.0201  -55.5043 C.2       7 UNK         0.5104 
     39 O          25.0120  -50.1716  -56.4964 O.2       7 UNK        -0.5100 
     40 CA         25.1455  -49.3030  -54.2704 C.3       6 UNK         0.0396 
     41 CB         24.4078  -50.3045  -53.3678 C.3       6 UNK        -0.1801 
     42 N          26.1536  -48.5916  -53.4794 N.am      6 UNK        -0.4747 
     43 C          26.7943  -47.4838  -53.8814 C.2       6 UNK         0.5012 
     44 O          26.5919  -46.9325  -54.9621 O.2       6 UNK        -0.5003 
     45 CA         27.8822  -46.9309  -52.9389 C.3       5 UNK         0.0782 
     46 C46        27.2498  -45.9739  -51.9005 C.3       11 UNK        -0.0868 
     47 S47        28.4957  -45.1614  -50.8453 S.3       11 UNK        -0.2515 
     48 C48        28.5805  -43.5013  -51.5880 C.3       11 UNK         0.0199 
     49 N          28.6829  -47.9904  -52.3083 N.am      5 UNK        -0.4607 
     50 C          29.3863  -48.9135  -52.9742 C.2       4 UNK         0.5031 
     51 O          29.3835  -49.0180  -54.2030 O.2       4 UNK        -0.5119 
     52 CA         30.1600  -49.9356  -52.1285 C.3       4 UNK         0.0263 
     53 CB         29.2328  -51.0921  -51.7191 C.3       4 UNK        -0.1967 
     54 N          31.2916  -50.4782  -52.8810 N.am      4 UNK        -0.4237 
     55 C          32.4189  -49.8036  -53.1316 C.2       3 UNK         0.4908 
     56 O          32.6933  -48.7031  -52.6417 O.2       3 UNK        -0.5102 
     57 CA         33.3943  -50.4615  -54.1128 C.3       3 UNK         0.0241 
     58 CB         32.9487  -50.2143  -55.5679 C.3       3 UNK        -0.1971 
     59 N          34.7080  -49.8773  -53.8827 N.am      3 UNK        -0.4139 
     60 C          35.8918  -50.3507  -54.2841 C.2       2 UNK         0.5016 
     61 O          36.0275  -51.4009  -54.9145 O.2       2 UNK        -0.5319 
     62 CA         37.1361  -49.5213  -53.8958 C.3       2 UNK         0.0286 
     63 CB         38.2388  -49.5677  -54.9752 C.3       2 UNK        -0.1963 
     64 N          36.8255  -48.1342  -53.5114 N.am      2 UNK        -0.4790 
     65 C          36.3020  -47.1628  -54.2762 C.2       1 UNK         0.5024 
     66 O          36.0766  -47.2929  -55.4801 O.2       1 UNK        -0.4888 
     67 H67        34.3761  -46.1726  -49.3334 H         1 UNK         0.0892 
     68 H68        33.2326  -46.4623  -50.6483 H         1 UNK         0.0892 
     69 H69        34.1166  -47.8124  -49.9396 H         1 UNK         0.0892 
     70 H70        34.0466  -45.9062  -52.6486 H         1 UNK         0.3107 
     71 H71        36.8791  -45.4777  -53.1300 H         1 UNK         0.0773 
     72 H72        36.0010  -44.6721  -55.4064 H         1 UNK         0.0680 
     73 H73        35.5447  -43.7663  -54.0063 H         1 UNK         0.0680 
     74 H74        33.2681  -42.5492  -54.7062 H         1 UNK         0.0650 
     75 H75        33.3215  -43.3460  -53.1489 H         1 UNK         0.0650 
     76 H76        31.2641  -43.4778  -52.0025 H         1 UNK         0.1397 
     77 H77        27.5343  -43.5656  -54.1212 H         1 UNK         0.1363 
     78 H78        31.2322  -43.4773  -56.2899 H         1 UNK         0.1355 
     79 H79        29.1883  -43.9971  -57.4411 H         1 UNK         0.0707 
     80 H80        27.7190  -44.3224  -56.5512 H         1 UNK         0.0707 
     81 H81        27.7610  -41.2095  -59.3954 H         1 UNK         0.1034 
     82 H82        28.6155  -42.7224  -59.3553 H         1 UNK         0.1034 
     83 H83        25.6052  -42.4527  -58.8860 H         1 UNK         0.0482 
     84 H84        26.2188  -44.7327  -61.3624 H         1 UNK         0.3460 
     85 H85        25.8848  -43.6621  -62.7019 H         1 UNK         0.3460 
     86 H86        27.3202  -44.8705  -59.1258 H         1 UNK         0.2989 
     87 H87        24.8999  -46.7787  -57.4571 H         1 UNK         0.0559 
     88 H88        25.8067  -47.2956  -60.3357 H         1 UNK         0.0848 
     89 H89        24.1404  -47.2125  -59.7840 H         1 UNK         0.0848 
     90 H90        25.1872  -48.4990  -59.2062 H         1 UNK         0.0848 
     91 H91        26.8971  -47.2886  -56.8189 H         1 UNK         0.3144 
     92 H92        29.9250  -48.0838  -58.4889 H         1 UNK         0.0727 
     93 H93        29.4052  -46.4066  -55.9769 H         1 UNK         0.0790 
     94 H94        30.4692  -45.9728  -57.3149 H         1 UNK         0.0790 
     95 H95        30.8603  -47.3429  -56.2943 H         1 UNK         0.0790 
     96 H96        28.8888  -48.8648  -55.9474 H         1 UNK         0.3215 
     97 H97        27.0428  -51.7154  -57.0840 H         1 UNK         0.0863 
     98 H98        28.4796  -52.7238  -55.3245 H         1 UNK         0.0808 
     99 H99        29.5901  -51.3584  -55.4128 H         1 UNK         0.0808 
    100 H100       29.4029  -52.4321  -56.7894 H         1 UNK         0.0808 
    101 H101       27.5268  -50.2187  -54.5965 H         1 UNK         0.3118 
    102 H102       24.4191  -48.5700  -54.6284 H         1 UNK         0.0546 
    103 H103       25.0836  -51.0577  -52.9606 H         1 UNK         0.0828 
    104 H104       23.6309  -50.8313  -53.9238 H         1 UNK         0.0828 
    105 H105       23.9201  -49.8023  -52.5322 H         1 UNK         0.0828 
    106 H106       26.3863  -48.9797  -52.5764 H         1 UNK         0.3005 
    107 H107       28.5669  -46.3525  -53.5631 H         1 UNK         0.1257 
    108 H108       26.5640  -46.5181  -51.2483 H         1 UNK         0.0775 
    109 H109       26.6468  -45.2097  -52.3948 H         1 UNK         0.0775 
    110 H110       27.5752  -43.0935  -51.7055 H         1 UNK         0.0840 
    111 H111       29.0939  -42.8342  -50.8938 H         1 UNK         0.0840 
    112 H112       28.7324  -47.9637  -51.3000 H         1 UNK         0.2987 
    113 H113       30.5362  -49.4417  -51.2297 H         1 UNK         0.0785 
    114 H114       28.3911  -50.7313  -51.1265 H         1 UNK         0.0798 
    115 H115       29.7613  -51.8261  -51.1104 H         1 UNK         0.0798 
    116 H116       28.8223  -51.6106  -52.5868 H         1 UNK         0.0798 
    117 H117       31.1393  -51.3597  -53.3481 H         1 UNK         0.3079 
    118 H118       33.4384  -51.5334  -53.9090 H         1 UNK         0.0794 
    119 H119       33.6228  -50.6917  -56.2791 H         1 UNK         0.0786 
    120 H120       32.9186  -49.1487  -55.8005 H         1 UNK         0.0786 
    121 H121       31.9511  -50.6147  -55.7507 H         1 UNK         0.0786 
    122 H122       34.6778  -49.0212  -53.3427 H         1 UNK         0.3032 
    123 H123       37.5367  -49.9983  -52.9997 H         1 UNK         0.1094 
    124 H124       39.1085  -48.9806  -54.6806 H         1 UNK         0.0794 
    125 H125       37.8857  -49.1886  -55.9345 H         1 UNK         0.0794 
    126 H126       38.5816  -50.5900  -55.1398 H         1 UNK         0.0794 
    127 H127       36.9425  -47.9115  -52.5249 H         1 UNK         0.3016 
@<TRIPOS>BOND
     1    1    2 1    
     2    1   67 1    
     3    1   68 1    
     4    1   69 1    
     5    2    3 2    
     6    2    4 am   BACKBONE|DICT|INTERRES
     7    4    5 1    
     8    4   70 1    
     9    5    6 1    
    10    5   65 1    
    11    5   71 1    
    12    6    7 1    
    13    6   72 1    
    14    6   73 1    
    15    7    8 1    
    16    8    9 1    
    17    8   74 1    
    18    8   75 1    
    19    9   10 ar   
    20    9   14 ar   
    21   10   11 ar   
    22   10   76 1    
    23   11   12 ar   
    24   11   48 1    
    25   12   13 ar   
    26   12   77 1    
    27   13   14 ar   
    28   13   15 1    
    29   14   78 1    
    30   15   16 1    
    31   15   79 1    
    32   15   80 1    
    33   16   17 1    
    34   17   18 1    
    35   17   81 1    
    36   17   82 1    
    37   18   19 1    
    38   18   22 1    
    39   18   83 1    
    40   19   20 am   BACKBONE|DICT|INTERRES
    41   19   21 2    
    42   20   84 1    
    43   20   85 1    
    44   22   23 am   BACKBONE|DICT|INTERRES
    45   22   86 1    
    46   23   24 2    
    47   23   25 1    
    48   25   26 1    
    49   25   27 1    
    50   25   87 1    
    51   26   88 1    
    52   26   89 1    
    53   26   90 1    
    54   27   28 am   BACKBONE|DICT|INTERRES
    55   27   91 1    
    56   28   29 2    
    57   28   30 1    
    58   30   31 1    
    59   30   32 1    
    60   30   92 1    
    61   31   93 1    
    62   31   94 1    
    63   31   95 1    
    64   32   33 am   BACKBONE|DICT|INTERRES
    65   32   96 1    
    66   33   34 2    
    67   33   35 1    
    68   35   36 1    
    69   35   37 1    
    70   35   97 1    
    71   36   98 1    
    72   36   99 1    
    73   36  100 1    
    74   37   38 am   BACKBONE|DICT|INTERRES
    75   37  101 1    
    76   38   39 2    
    77   38   40 1    
    78   40   41 1    
    79   40   42 1    
    80   40  102 1    
    81   41  103 1    
    82   41  104 1    
    83   41  105 1    
    84   42   43 am   BACKBONE|DICT|INTERRES
    85   42  106 1    
    86   43   44 2    
    87   43   45 1    
    88   45   46 1    
    89   45   49 1    
    90   45  107 1    
    91   46   47 1    
    92   46  108 1    
    93   46  109 1    
    94   47   48 1    
    95   48  110 1    
    96   48  111 1    
    97   49   50 am   BACKBONE|DICT|INTERRES
    98   49  112 1    
    99   50   51 2    
   100   50   52 1    
   101   52   53 1    
   102   52   54 1    
   103   52  113 1    
   104   53  114 1    
   105   53  115 1    
   106   53  116 1    
   107   54   55 am   BACKBONE|DICT|INTERRES
   108   54  117 1    
   109   55   56 2    
   110   55   57 1    
   111   57   58 1    
   112   57   59 1    
   113   57  118 1    
   114   58  119 1    
   115   58  120 1    
   116   58  121 1    
   117   59   60 am   BACKBONE|DICT|INTERRES
   118   59  122 1    
   119   60   61 2    
   120   60   62 1    
   121   62   63 1    
   122   62   64 1    
   123   62  123 1    
   124   63  124 1    
   125   63  125 1    
   126   63  126 1    
   127   64   65 am   BACKBONE|DICT|INTERRES
   128   64  127 1    
   129   65   66 2    
@<TRIPOS>SUBSTRUCTURE
     1 UNK         1 GROUP             0       ****    0 ROOT    
