@<TRIPOS>MOLECULE
3R134
127   129    1
SMALL
USER_CHARGES


@<TRIPOS>ATOM
      1 CA         29.7742  -46.3240  -49.3460 C.3       0 UNK        -0.1968 
      2 C          30.6727  -45.8190  -50.4643 C.2       0 UNK         0.4852 
      3 O          30.4157  -46.1145  -51.6296 O.2       0 UNK        -0.5359 
      4 N          31.7247  -45.0635  -50.1223 N.am      1 UNK        -0.4300 
      5 CA         32.7416  -44.4996  -51.0204 C.3       1 UNK         0.0863 
      6 C6         32.1571  -43.6386  -52.1755 C.3       11 UNK        -0.0953 
      7 S7         33.2764  -42.2857  -52.6565 S.3       11 UNK        -0.2369 
      8 C8         32.2722  -41.4478  -53.9317 C.3       11 UNK         0.0226 
      9 C9         32.1626  -42.1645  -55.2804 C.ar      11 UNK        -0.0699 
     10 C10        33.0071  -43.2178  -55.6543 C.ar      11 UNK        -0.0804 
     11 C11        32.8881  -43.8226  -56.9086 C.ar      11 UNK        -0.0871 
     12 C12        31.9183  -43.3601  -57.8056 C.ar      11 UNK        -0.1008 
     13 C13        31.0576  -42.3199  -57.4446 C.ar      11 UNK        -0.0735 
     14 C14        31.1941  -41.7235  -56.1872 C.ar      11 UNK        -0.0945 
     15 C15        29.9931  -41.8242  -58.4171 C.3       11 UNK         0.0169 
     16 S16        28.5331  -42.9178  -58.4896 S.3       11 UNK        -0.2669 
     17 C17        27.9314  -42.8719  -56.7658 C.3       11 UNK        -0.0850 
     18 CA         28.1994  -44.2291  -56.0436 C.3       10 UNK         0.0855 
     19 C          28.6961  -44.1139  -54.5731 C.2       10 UNK         0.5543 
     20 N          29.0314  -45.2419  -53.9612 N.am      10 UNK        -0.7343 
     21 O          28.7823  -43.0346  -53.9928 O.2       10 UNK        -0.5027 
     22 N          27.1020  -45.2023  -56.1899 N.am      10 UNK        -0.4495 
     23 C          25.8692  -45.0823  -55.6763 C.2       10 UNK         0.4903 
     24 O          25.4752  -44.0726  -55.0911 O.2       10 UNK        -0.4860 
     25 CA         24.9155  -46.2923  -55.7832 C.3       9 UNK         0.0227 
     26 CB         23.4545  -45.8688  -56.0486 C.3       9 UNK        -0.1964 
     27 N          25.3419  -47.3477  -56.7122 N.am      9 UNK        -0.4231 
     28 C          25.4217  -47.2923  -58.0524 C.2       9 UNK         0.5014 
     29 O          25.1148  -46.2988  -58.7123 O.2       9 UNK        -0.5270 
     30 CA         25.9388  -48.5481  -58.7869 C.3       8 UNK         0.0284 
     31 CB         26.9426  -48.1756  -59.8940 C.3       8 UNK        -0.1977 
     32 N          26.5899  -49.4830  -57.8665 N.am      8 UNK        -0.4342 
     33 C          26.1267  -50.6861  -57.5005 C.2       8 UNK         0.5039 
     34 O          25.1079  -51.1968  -57.9669 O.2       8 UNK        -0.5547 
     35 CA         26.9139  -51.4482  -56.4113 C.3       7 UNK         0.0281 
     36 CB         27.8202  -52.5129  -57.0495 C.3       7 UNK        -0.1963 
     37 N          27.7272  -50.5880  -55.5447 N.am      7 UNK        -0.4444 
     38 C          27.2503  -49.6137  -54.7573 C.2       7 UNK         0.5104 
     39 O          26.0514  -49.3785  -54.6111 O.2       7 UNK        -0.5100 
     40 CA         28.2827  -48.6788  -54.1056 C.3       6 UNK         0.0396 
     41 CB         28.6803  -49.2000  -52.7174 C.3       6 UNK        -0.1801 
     42 N          29.4881  -48.4756  -54.9204 N.am      6 UNK        -0.4747 
     43 C          29.5193  -48.0069  -56.1772 C.2       6 UNK         0.5012 
     44 O          28.5136  -47.6309  -56.7763 O.2       6 UNK        -0.5003 
     45 CA         30.8703  -47.9890  -56.9078 C.3       5 UNK         0.0782 
     46 C46        31.6312  -46.6696  -56.6606 C.3       11 UNK        -0.0868 
     47 S47        32.9606  -46.4544  -57.8893 S.3       11 UNK        -0.2515 
     48 C48        33.8239  -44.9689  -57.2793 C.3       11 UNK         0.0199 
     49 N          31.6686  -49.1600  -56.5474 N.am      5 UNK        -0.4607 
     50 C          31.5856  -50.3481  -57.1577 C.2       4 UNK         0.5031 
     51 O          30.8480  -50.5742  -58.1164 O.2       4 UNK        -0.5119 
     52 CA         32.4690  -51.4808  -56.6054 C.3       4 UNK         0.0263 
     53 CB         33.8013  -51.5402  -57.3697 C.3       4 UNK        -0.1967 
     54 N          32.7390  -51.3541  -55.1707 N.am      4 UNK        -0.4237 
     55 C          31.8164  -51.5102  -54.2111 C.2       3 UNK         0.4908 
     56 O          30.6442  -51.8196  -54.4301 O.2       3 UNK        -0.5102 
     57 CA         32.2721  -51.2350  -52.7661 C.3       3 UNK         0.0241 
     58 CB         32.8944  -52.4977  -52.1486 C.3       3 UNK        -0.1971 
     59 N          33.2036  -50.1055  -52.6234 N.am      3 UNK        -0.4139 
     60 C          32.9341  -48.8467  -52.9958 C.2       2 UNK         0.5016 
     61 O          31.9153  -48.5190  -53.6039 O.2       2 UNK        -0.5319 
     62 CA         33.9697  -47.7687  -52.6723 C.3       2 UNK         0.0286 
     63 CB         34.8259  -47.4439  -53.9103 C.3       2 UNK        -0.1963 
     64 N          33.2390  -46.5848  -52.2272 N.am      2 UNK        -0.4790 
     65 C          33.7378  -45.5734  -51.5093 C.2       1 UNK         0.5024 
     66 O          34.9245  -45.4887  -51.1891 O.2       1 UNK        -0.4888 
     67 H67        29.7473  -47.4133  -49.3528 H         1 UNK         0.0892 
     68 H68        28.7582  -45.9575  -49.4899 H         1 UNK         0.0892 
     69 H69        30.1184  -45.9976  -48.3650 H         1 UNK         0.0892 
     70 H70        31.8855  -44.8787  -49.1417 H         1 UNK         0.3107 
     71 H71        33.3114  -43.8322  -50.3713 H         1 UNK         0.0773 
     72 H72        31.2201  -43.1776  -51.8590 H         1 UNK         0.0680 
     73 H73        31.9084  -44.2428  -53.0502 H         1 UNK         0.0680 
     74 H74        31.2728  -41.2773  -53.5278 H         1 UNK         0.0650 
     75 H75        32.7060  -40.4626  -54.1068 H         1 UNK         0.0650 
     76 H76        33.7691  -43.5720  -54.9755 H         1 UNK         0.1397 
     77 H77        31.8215  -43.8220  -58.7788 H         1 UNK         0.1363 
     78 H78        30.5404  -40.9081  -55.9088 H         1 UNK         0.1355 
     79 H79        30.4245  -41.7498  -59.4165 H         1 UNK         0.0707 
     80 H80        29.6710  -40.8157  -58.1525 H         1 UNK         0.0707 
     81 H81        26.8697  -42.6254  -56.7737 H         1 UNK         0.1034 
     82 H82        28.4061  -42.0333  -56.2574 H         1 UNK         0.1034 
     83 H83        29.0457  -44.6913  -56.5488 H         1 UNK         0.0482 
     84 H84        28.9502  -46.1237  -54.4377 H         1 UNK         0.3460 
     85 H85        29.4057  -45.2352  -53.0179 H         1 UNK         0.3460 
     86 H86        27.3649  -46.0861  -56.6144 H         1 UNK         0.2989 
     87 H87        24.9368  -46.7590  -54.7975 H         1 UNK         0.0559 
     88 H88        22.7922  -46.7331  -56.0971 H         1 UNK         0.0848 
     89 H89        23.3553  -45.3156  -56.9828 H         1 UNK         0.0848 
     90 H90        23.0820  -45.2238  -55.2519 H         1 UNK         0.0848 
     91 H91        25.6102  -48.2151  -56.2598 H         1 UNK         0.3144 
     92 H92        25.0725  -49.0188  -59.2557 H         1 UNK         0.0727 
     93 H93        27.3100  -49.0627  -60.4101 H         1 UNK         0.0790 
     94 H94        27.8042  -47.6403  -59.4926 H         1 UNK         0.0790 
     95 H95        26.4808  -47.5343  -60.6457 H         1 UNK         0.0790 
     96 H96        27.4245  -49.1206  -57.4149 H         1 UNK         0.3215 
     97 H97        26.1824  -51.9541  -55.7775 H         1 UNK         0.0863 
     98 H98        28.3385  -53.1011  -56.2917 H         1 UNK         0.0808 
     99 H99        28.5731  -52.0641  -57.6986 H         1 UNK         0.0808 
    100 H100       27.2385  -53.2073  -57.6572 H         1 UNK         0.0808 
    101 H101       28.7296  -50.7260  -55.5698 H         1 UNK         0.3118 
    102 H102       27.8012  -47.7084  -53.9778 H         1 UNK         0.0546 
    103 H103       27.8087  -49.2828  -52.0672 H         1 UNK         0.0828 
    104 H104       29.3870  -48.5297  -52.2284 H         1 UNK         0.0828 
    105 H105       29.1398  -50.1865  -52.7750 H         1 UNK         0.0828 
    106 H106       30.3782  -48.6763  -54.4625 H         1 UNK         0.3005 
    107 H107       30.6326  -48.0388  -57.9737 H         1 UNK         0.1257 
    108 H108       32.0409  -46.6266  -55.6500 H         1 UNK         0.0775 
    109 H109       30.9596  -45.8177  -56.7566 H         1 UNK         0.0775 
    110 H110       34.4372  -45.2586  -56.4248 H         1 UNK         0.0840 
    111 H111       34.5166  -44.6244  -58.0481 H         1 UNK         0.0840 
    112 H112       32.2493  -49.0661  -55.7254 H         1 UNK         0.2987 
    113 H113       31.9372  -52.4209  -56.7686 H         1 UNK         0.0785 
    114 H114       34.3858  -50.6289  -57.2357 H         1 UNK         0.0798 
    115 H115       33.6306  -51.6625  -58.4403 H         1 UNK         0.0798 
    116 H116       34.4103  -52.3831  -57.0425 H         1 UNK         0.0798 
    117 H117       33.6783  -51.1028  -54.8992 H         1 UNK         0.3079 
    118 H118       31.3782  -50.9861  -52.1909 H         1 UNK         0.0794 
    119 H119       33.8222  -52.7788  -52.6486 H         1 UNK         0.0786 
    120 H120       32.2128  -53.3463  -52.2252 H         1 UNK         0.0786 
    121 H121       33.1123  -52.3562  -51.0898 H         1 UNK         0.0786 
    122 H122       34.0731  -50.2974  -52.1462 H         1 UNK         0.3032 
    123 H123       34.6119  -48.1174  -51.8604 H         1 UNK         0.1094 
    124 H124       34.2149  -47.0882  -54.7398 H         1 UNK         0.0794 
    125 H125       35.5695  -46.6775  -53.6923 H         1 UNK         0.0794 
    126 H126       35.3647  -48.3267  -54.2565 H         1 UNK         0.0794 
    127 H127       32.2343  -46.6108  -52.3955 H         1 UNK         0.3016 
@<TRIPOS>BOND
     1    1    2 1    
     2    1   67 1    
     3    1   68 1    
     4    1   69 1    
     5    2    3 2    
     6    2    4 am   BACKBONE|DICT|INTERRES
     7    4    5 1    
     8    4   70 1    
     9    5    6 1    
    10    5   65 1    
    11    5   71 1    
    12    6    7 1    
    13    6   72 1    
    14    6   73 1    
    15    7    8 1    
    16    8    9 1    
    17    8   74 1    
    18    8   75 1    
    19    9   10 ar   
    20    9   14 ar   
    21   10   11 ar   
    22   10   76 1    
    23   11   12 ar   
    24   11   48 1    
    25   12   13 ar   
    26   12   77 1    
    27   13   14 ar   
    28   13   15 1    
    29   14   78 1    
    30   15   16 1    
    31   15   79 1    
    32   15   80 1    
    33   16   17 1    
    34   17   18 1    
    35   17   81 1    
    36   17   82 1    
    37   18   19 1    
    38   18   22 1    
    39   18   83 1    
    40   19   20 am   BACKBONE|DICT|INTERRES
    41   19   21 2    
    42   20   84 1    
    43   20   85 1    
    44   22   23 am   BACKBONE|DICT|INTERRES
    45   22   86 1    
    46   23   24 2    
    47   23   25 1    
    48   25   26 1    
    49   25   27 1    
    50   25   87 1    
    51   26   88 1    
    52   26   89 1    
    53   26   90 1    
    54   27   28 am   BACKBONE|DICT|INTERRES
    55   27   91 1    
    56   28   29 2    
    57   28   30 1    
    58   30   31 1    
    59   30   32 1    
    60   30   92 1    
    61   31   93 1    
    62   31   94 1    
    63   31   95 1    
    64   32   33 am   BACKBONE|DICT|INTERRES
    65   32   96 1    
    66   33   34 2    
    67   33   35 1    
    68   35   36 1    
    69   35   37 1    
    70   35   97 1    
    71   36   98 1    
    72   36   99 1    
    73   36  100 1    
    74   37   38 am   BACKBONE|DICT|INTERRES
    75   37  101 1    
    76   38   39 2    
    77   38   40 1    
    78   40   41 1    
    79   40   42 1    
    80   40  102 1    
    81   41  103 1    
    82   41  104 1    
    83   41  105 1    
    84   42   43 am   BACKBONE|DICT|INTERRES
    85   42  106 1    
    86   43   44 2    
    87   43   45 1    
    88   45   46 1    
    89   45   49 1    
    90   45  107 1    
    91   46   47 1    
    92   46  108 1    
    93   46  109 1    
    94   47   48 1    
    95   48  110 1    
    96   48  111 1    
    97   49   50 am   BACKBONE|DICT|INTERRES
    98   49  112 1    
    99   50   51 2    
   100   50   52 1    
   101   52   53 1    
   102   52   54 1    
   103   52  113 1    
   104   53  114 1    
   105   53  115 1    
   106   53  116 1    
   107   54   55 am   BACKBONE|DICT|INTERRES
   108   54  117 1    
   109   55   56 2    
   110   55   57 1    
   111   57   58 1    
   112   57   59 1    
   113   57  118 1    
   114   58  119 1    
   115   58  120 1    
   116   58  121 1    
   117   59   60 am   BACKBONE|DICT|INTERRES
   118   59  122 1    
   119   60   61 2    
   120   60   62 1    
   121   62   63 1    
   122   62   64 1    
   123   62  123 1    
   124   63  124 1    
   125   63  125 1    
   126   63  126 1    
   127   64   65 am   BACKBONE|DICT|INTERRES
   128   64  127 1    
   129   65   66 2    
@<TRIPOS>SUBSTRUCTURE
     1 UNK         1 GROUP             0       ****    0 ROOT    
