@<TRIPOS>MOLECULE
3R134
127   129    1
SMALL
USER_CHARGES


@<TRIPOS>ATOM
      1 CA         35.3376  -47.5359  -55.1878 C.3       0 UNK        -0.1968 
      2 C          34.1609  -47.1367  -54.3123 C.2       0 UNK         0.4852 
      3 O          33.1096  -47.7743  -54.3862 O.2       0 UNK        -0.5359 
      4 N          34.3342  -46.0969  -53.4826 N.am      1 UNK        -0.4300 
      5 CA         33.3107  -45.4629  -52.6335 C.3       1 UNK         0.0863 
      6 C6         33.9129  -44.2631  -51.8520 C.3       11 UNK        -0.0953 
      7 S7         32.6908  -42.9642  -51.4573 S.3       11 UNK        -0.2369 
      8 C8         33.0866  -41.6700  -52.6782 C.3       11 UNK         0.0226 
      9 C9         32.5054  -41.9904  -54.0474 C.ar      11 UNK        -0.0699 
     10 C10        33.2072  -42.8091  -54.9370 C.ar      11 UNK        -0.0804 
     11 C11        32.6629  -43.1415  -56.1804 C.ar      11 UNK        -0.0871 
     12 C12        31.4352  -42.5886  -56.5581 C.ar      11 UNK        -0.1008 
     13 C13        30.7113  -41.7919  -55.6686 C.ar      11 UNK        -0.0735 
     14 C14        31.2536  -41.4874  -54.4168 C.ar      11 UNK        -0.0945 
     15 C15        29.3193  -41.3180  -56.0477 C.3       11 UNK         0.0169 
     16 S16        28.0710  -42.5223  -55.4881 S.3       11 UNK        -0.2669 
     17 C17        26.7966  -42.3766  -56.7908 C.3       11 UNK        -0.0850 
     18 CA         26.6971  -43.6209  -57.7210 C.3       10 UNK         0.0855 
     19 C          27.9649  -43.8786  -58.5806 C.2       10 UNK         0.5543 
     20 N          28.3838  -42.9055  -59.3786 N.am      10 UNK        -0.7343 
     21 O          28.5643  -44.9509  -58.5494 O.2       10 UNK        -0.5027 
     22 N          26.2774  -44.8289  -57.0010 N.am      10 UNK        -0.4495 
     23 C          25.0196  -45.1375  -56.6706 C.2       10 UNK         0.4903 
     24 O          24.0550  -44.4005  -56.8846 O.2       10 UNK        -0.4860 
     25 CA         24.8135  -46.5105  -56.0017 C.3       9 UNK         0.0227 
     26 CB         23.3285  -46.8754  -55.7926 C.3       9 UNK        -0.1964 
     27 N          25.5271  -47.5805  -56.7072 N.am      9 UNK        -0.4231 
     28 C          25.3508  -47.9988  -57.9699 C.2       9 UNK         0.5014 
     29 O          24.4752  -47.5727  -58.7243 O.2       9 UNK        -0.5270 
     30 CA         26.3290  -49.0658  -58.4990 C.3       8 UNK         0.0284 
     31 CB         27.3957  -48.4080  -59.3890 C.3       8 UNK        -0.1977 
     32 N          26.9916  -49.8382  -57.4422 N.am      8 UNK        -0.4342 
     33 C          26.3835  -50.7613  -56.6829 C.2       8 UNK         0.5039 
     34 O          25.2116  -51.1086  -56.8344 O.2       8 UNK        -0.5547 
     35 CA         27.2106  -51.3807  -55.5428 C.3       7 UNK         0.0281 
     36 CB         28.1475  -52.4776  -56.0739 C.3       7 UNK        -0.1963 
     37 N          27.9875  -50.3842  -54.8018 N.am      7 UNK        -0.4444 
     38 C          27.4630  -49.3924  -54.0670 C.2       7 UNK         0.5104 
     39 O          26.2566  -49.2321  -53.8855 O.2       7 UNK        -0.5100 
     40 CA         28.4536  -48.3775  -53.4745 C.3       6 UNK         0.0396 
     41 CB         29.0785  -48.9132  -52.1770 C.3       6 UNK        -0.1801 
     42 N          29.4964  -48.0173  -54.4397 N.am      6 UNK        -0.4747 
     43 C          29.2682  -47.2844  -55.5410 C.2       6 UNK         0.5012 
     44 O          28.1835  -46.7600  -55.7908 O.2       6 UNK        -0.5003 
     45 CA         30.4123  -47.1484  -56.5613 C.3       5 UNK         0.0782 
     46 C46        31.1788  -45.8272  -56.3568 C.3       11 UNK        -0.0868 
     47 S47        32.3067  -45.4600  -57.7474 S.3       11 UNK        -0.2515 
     48 C48        33.3856  -44.1395  -57.0810 C.3       11 UNK         0.0199 
     49 N          31.2885  -48.3219  -56.5529 N.am      5 UNK        -0.4607 
     50 C          30.9547  -49.4905  -57.1120 C.2       4 UNK         0.5031 
     51 O          29.8761  -49.6929  -57.6695 O.2       4 UNK        -0.5119 
     52 CA         31.9708  -50.6391  -57.0056 C.3       4 UNK         0.0263 
     53 CB         33.0379  -50.5107  -58.1041 C.3       4 UNK        -0.1967 
     54 N          32.6273  -50.7533  -55.6997 N.am      4 UNK        -0.4237 
     55 C          32.0009  -50.9068  -54.5249 C.2       3 UNK         0.4908 
     56 O          30.7765  -50.8943  -54.4000 O.2       3 UNK        -0.5102 
     57 CA         32.8703  -51.1168  -53.2785 C.3       3 UNK         0.0241 
     58 CB         34.3451  -51.4620  -53.5759 C.3       3 UNK        -0.1971 
     59 N          32.8075  -49.9185  -52.4455 N.am      3 UNK        -0.4139 
     60 C          32.6882  -49.9167  -51.1106 C.2       2 UNK         0.5016 
     61 O          32.5717  -50.9443  -50.4404 O.2       2 UNK        -0.5319 
     62 CA         32.7268  -48.5559  -50.3870 C.3       2 UNK         0.0286 
     63 CB         33.5741  -48.6212  -49.1024 C.3       2 UNK        -0.1963 
     64 N          33.2616  -47.4930  -51.2426 N.am      2 UNK        -0.4790 
     65 C          32.5713  -46.4330  -51.6834 C.2       1 UNK         0.5024 
     66 O          31.3987  -46.2099  -51.3842 O.2       1 UNK        -0.4888 
     67 H67        35.0209  -47.6021  -56.2285 H         1 UNK         0.0892 
     68 H68        35.7217  -48.5086  -54.8844 H         1 UNK         0.0892 
     69 H69        36.1524  -46.8146  -55.1294 H         1 UNK         0.0892 
     70 H70        35.2426  -45.6564  -53.4543 H         1 UNK         0.3107 
     71 H71        32.5559  -45.0795  -53.3221 H         1 UNK         0.0773 
     72 H72        34.7200  -43.8005  -52.4207 H         1 UNK         0.0680 
     73 H73        34.3803  -44.5945  -50.9225 H         1 UNK         0.0680 
     74 H74        32.6830  -40.7220  -52.3193 H         1 UNK         0.0650 
     75 H75        34.1666  -41.5302  -52.7433 H         1 UNK         0.0650 
     76 H76        34.1647  -43.2162  -54.6454 H         1 UNK         0.1397 
     77 H77        31.0047  -42.8441  -57.5173 H         1 UNK         0.1363 
     78 H78        30.6906  -40.8788  -53.7222 H         1 UNK         0.1355 
     79 H79        29.2639  -41.1852  -57.1290 H         1 UNK         0.0707 
     80 H80        29.1103  -40.3434  -55.6040 H         1 UNK         0.0707 
     81 H81        26.9602  -41.4714  -57.3768 H         1 UNK         0.1034 
     82 H82        25.8369  -42.2179  -56.2971 H         1 UNK         0.1034 
     83 H83        25.9160  -43.4139  -58.4552 H         1 UNK         0.0482 
     84 H84        27.8908  -42.0296  -59.4461 H         1 UNK         0.3460 
     85 H85        29.1977  -43.0665  -59.9502 H         1 UNK         0.3460 
     86 H86        27.0252  -45.4859  -56.7905 H         1 UNK         0.2989 
     87 H87        25.2760  -46.4414  -55.0159 H         1 UNK         0.0559 
     88 H88        23.2253  -47.8416  -55.2986 H         1 UNK         0.0848 
     89 H89        22.7831  -46.9200  -56.7356 H         1 UNK         0.0848 
     90 H90        22.8304  -46.1356  -55.1648 H         1 UNK         0.0848 
     91 H91        26.3184  -47.9606  -56.2037 H         1 UNK         0.3144 
     92 H92        25.7536  -49.7599  -59.1152 H         1 UNK         0.0727 
     93 H93        28.0666  -49.1500  -59.8223 H         1 UNK         0.0790 
     94 H94        28.0004  -47.6946  -58.8288 H         1 UNK         0.0790 
     95 H95        26.9356  -47.8642  -60.2152 H         1 UNK         0.0790 
     96 H96        27.9896  -49.6813  -57.3180 H         1 UNK         0.3215 
     97 H97        26.5122  -51.8418  -54.8411 H         1 UNK         0.0863 
     98 H98        28.6881  -52.9639  -55.2616 H         1 UNK         0.0808 
     99 H99        28.8840  -52.0798  -56.7723 H         1 UNK         0.0808 
    100 H100       27.5844  -53.2506  -56.5984 H         1 UNK         0.0808 
    101 H101       29.0014  -50.4729  -54.8327 H         1 UNK         0.3118 
    102 H102       27.8962  -47.4718  -53.2255 H         1 UNK         0.0546 
    103 H103       28.3051  -49.1494  -51.4450 H         1 UNK         0.0828 
    104 H104       29.7346  -48.1746  -51.7212 H         1 UNK         0.0828 
    105 H105       29.6561  -49.8224  -52.3390 H         1 UNK         0.0828 
    106 H106       30.4040  -48.4477  -54.3256 H         1 UNK         0.3005 
    107 H107       29.9367  -47.0924  -57.5432 H         1 UNK         0.1257 
    108 H108       31.7330  -45.8307  -55.4197 H         1 UNK         0.0775 
    109 H109       30.4612  -45.0087  -56.2844 H         1 UNK         0.0775 
    110 H110       34.2025  -44.6180  -56.5389 H         1 UNK         0.0840 
    111 H111       33.8424  -43.6024  -57.9130 H         1 UNK         0.0840 
    112 H112       32.1529  -48.2355  -56.0275 H         1 UNK         0.2987 
    113 H113       31.4233  -51.5692  -57.1716 H         1 UNK         0.0785 
    114 H114       33.6511  -49.6185  -57.9694 H         1 UNK         0.0798 
    115 H115       32.5761  -50.4424  -59.0903 H         1 UNK         0.0798 
    116 H116       33.7005  -51.3762  -58.1189 H         1 UNK         0.0798 
    117 H117       33.6363  -50.7614  -55.7021 H         1 UNK         0.3079 
    118 H118       32.4263  -51.9632  -52.7502 H         1 UNK         0.0794 
    119 H119       34.8740  -50.6366  -54.0520 H         1 UNK         0.0786 
    120 H120       34.4259  -52.3359  -54.2240 H         1 UNK         0.0786 
    121 H121       34.8783  -51.7013  -52.6556 H         1 UNK         0.0786 
    122 H122       32.8471  -49.0338  -52.9459 H         1 UNK         0.3032 
    123 H123       31.6970  -48.3341  -50.0988 H         1 UNK         0.1094 
    124 H124       34.6062  -48.9029  -49.3139 H         1 UNK         0.0794 
    125 H125       33.5873  -47.6599  -48.5884 H         1 UNK         0.0794 
    126 H126       33.1723  -49.3532  -48.4005 H         1 UNK         0.0794 
    127 H127       34.2181  -47.6012  -51.5505 H         1 UNK         0.3016 
@<TRIPOS>BOND
     1    1    2 1    
     2    1   67 1    
     3    1   68 1    
     4    1   69 1    
     5    2    3 2    
     6    2    4 am   BACKBONE|DICT|INTERRES
     7    4    5 1    
     8    4   70 1    
     9    5    6 1    
    10    5   65 1    
    11    5   71 1    
    12    6    7 1    
    13    6   72 1    
    14    6   73 1    
    15    7    8 1    
    16    8    9 1    
    17    8   74 1    
    18    8   75 1    
    19    9   10 ar   
    20    9   14 ar   
    21   10   11 ar   
    22   10   76 1    
    23   11   12 ar   
    24   11   48 1    
    25   12   13 ar   
    26   12   77 1    
    27   13   14 ar   
    28   13   15 1    
    29   14   78 1    
    30   15   16 1    
    31   15   79 1    
    32   15   80 1    
    33   16   17 1    
    34   17   18 1    
    35   17   81 1    
    36   17   82 1    
    37   18   19 1    
    38   18   22 1    
    39   18   83 1    
    40   19   20 am   BACKBONE|DICT|INTERRES
    41   19   21 2    
    42   20   84 1    
    43   20   85 1    
    44   22   23 am   BACKBONE|DICT|INTERRES
    45   22   86 1    
    46   23   24 2    
    47   23   25 1    
    48   25   26 1    
    49   25   27 1    
    50   25   87 1    
    51   26   88 1    
    52   26   89 1    
    53   26   90 1    
    54   27   28 am   BACKBONE|DICT|INTERRES
    55   27   91 1    
    56   28   29 2    
    57   28   30 1    
    58   30   31 1    
    59   30   32 1    
    60   30   92 1    
    61   31   93 1    
    62   31   94 1    
    63   31   95 1    
    64   32   33 am   BACKBONE|DICT|INTERRES
    65   32   96 1    
    66   33   34 2    
    67   33   35 1    
    68   35   36 1    
    69   35   37 1    
    70   35   97 1    
    71   36   98 1    
    72   36   99 1    
    73   36  100 1    
    74   37   38 am   BACKBONE|DICT|INTERRES
    75   37  101 1    
    76   38   39 2    
    77   38   40 1    
    78   40   41 1    
    79   40   42 1    
    80   40  102 1    
    81   41  103 1    
    82   41  104 1    
    83   41  105 1    
    84   42   43 am   BACKBONE|DICT|INTERRES
    85   42  106 1    
    86   43   44 2    
    87   43   45 1    
    88   45   46 1    
    89   45   49 1    
    90   45  107 1    
    91   46   47 1    
    92   46  108 1    
    93   46  109 1    
    94   47   48 1    
    95   48  110 1    
    96   48  111 1    
    97   49   50 am   BACKBONE|DICT|INTERRES
    98   49  112 1    
    99   50   51 2    
   100   50   52 1    
   101   52   53 1    
   102   52   54 1    
   103   52  113 1    
   104   53  114 1    
   105   53  115 1    
   106   53  116 1    
   107   54   55 am   BACKBONE|DICT|INTERRES
   108   54  117 1    
   109   55   56 2    
   110   55   57 1    
   111   57   58 1    
   112   57   59 1    
   113   57  118 1    
   114   58  119 1    
   115   58  120 1    
   116   58  121 1    
   117   59   60 am   BACKBONE|DICT|INTERRES
   118   59  122 1    
   119   60   61 2    
   120   60   62 1    
   121   62   63 1    
   122   62   64 1    
   123   62  123 1    
   124   63  124 1    
   125   63  125 1    
   126   63  126 1    
   127   64   65 am   BACKBONE|DICT|INTERRES
   128   64  127 1    
   129   65   66 2    
@<TRIPOS>SUBSTRUCTURE
     1 UNK         1 GROUP             0       ****    0 ROOT    
