@<TRIPOS>MOLECULE
3R134
127   129    1
SMALL
USER_CHARGES


@<TRIPOS>ATOM
      1 CA         32.9661  -42.9951  -58.6240 C.3       0 UNK        -0.1968 
      2 C          32.0120  -44.0082  -58.0102 C.2       0 UNK         0.4852 
      3 O          30.8878  -43.6512  -57.6596 O.2       0 UNK        -0.5359 
      4 N          32.4522  -45.2634  -57.8807 N.am      1 UNK        -0.4300 
      5 CA         31.7043  -46.3842  -57.3152 C.3       1 UNK         0.0863 
      6 C6         31.4857  -46.2597  -55.7830 C.3       11 UNK        -0.0953 
      7 S7         33.0264  -46.2132  -54.7892 S.3       11 UNK        -0.2369 
      8 C8         33.2128  -44.4434  -54.4088 C.3       11 UNK         0.0226 
      9 C9         32.1553  -43.9696  -53.4266 C.ar      11 UNK        -0.0699 
     10 C10        32.3092  -44.2094  -52.0585 C.ar      11 UNK        -0.0804 
     11 C11        31.3180  -43.8168  -51.1535 C.ar      11 UNK        -0.0871 
     12 C12        30.1703  -43.1743  -51.6290 C.ar      11 UNK        -0.1008 
     13 C13        30.0167  -42.9144  -52.9945 C.ar      11 UNK        -0.0735 
     14 C14        31.0174  -43.3027  -53.8866 C.ar      11 UNK        -0.0945 
     15 C15        28.7662  -42.2202  -53.5050 C.3       11 UNK         0.0169 
     16 S16        27.4732  -43.4305  -53.9103 S.3       11 UNK        -0.2669 
     17 C17        27.7075  -43.6723  -55.7091 C.3       11 UNK        -0.0850 
     18 CA         27.1571  -45.0368  -56.2270 C.3       10 UNK         0.0855 
     19 C          25.6004  -45.1875  -56.2266 C.2       10 UNK         0.5543 
     20 N          24.8628  -44.3605  -55.4993 N.am      10 UNK        -0.7343 
     21 O          25.0528  -46.0991  -56.8410 O.2       10 UNK        -0.5027 
     22 N          27.7367  -45.4311  -57.5189 N.am      10 UNK        -0.4495 
     23 C          27.5361  -44.7967  -58.6848 C.2       10 UNK         0.4903 
     24 O          26.9871  -43.6987  -58.7841 O.2       10 UNK        -0.4860 
     25 CA         27.9797  -45.5151  -59.9741 C.3       9 UNK         0.0227 
     26 CB         29.3097  -44.9556  -60.5019 C.3       9 UNK        -0.1964 
     27 N          28.0898  -46.9665  -59.8192 N.am      9 UNK        -0.4231 
     28 C          27.0534  -47.8062  -59.6944 C.2       9 UNK         0.5014 
     29 O          25.8739  -47.4656  -59.7855 O.2       9 UNK        -0.5270 
     30 CA         27.3868  -49.2840  -59.4284 C.3       8 UNK         0.0284 
     31 CB         28.7398  -49.7225  -60.0259 C.3       8 UNK        -0.1977 
     32 N          27.3019  -49.6291  -58.0034 N.am      8 UNK        -0.4342 
     33 C          27.9705  -49.0795  -56.9791 C.2       8 UNK         0.5039 
     34 O          28.8164  -48.1858  -57.0944 O.2       8 UNK        -0.5547 
     35 CA         27.6781  -49.6699  -55.5937 C.3       7 UNK         0.0281 
     36 CB         28.7853  -50.6572  -55.1907 C.3       7 UNK        -0.1963 
     37 N          27.6075  -48.5975  -54.6007 N.am      7 UNK        -0.4444 
     38 C          26.4894  -48.2232  -53.9612 C.2       7 UNK         0.5104 
     39 O          25.3989  -48.7721  -54.1279 O.2       7 UNK        -0.5100 
     40 CA         26.5860  -47.0273  -52.9861 C.3       6 UNK         0.0396 
     41 CB         25.5274  -47.0837  -51.8635 C.3       6 UNK        -0.1801 
     42 N          27.9302  -46.7992  -52.4381 N.am      6 UNK        -0.4747 
     43 C          28.6084  -47.6253  -51.6282 C.2       6 UNK         0.5012 
     44 O          28.1655  -48.6965  -51.2056 O.2       6 UNK        -0.5003 
     45 CA         30.0185  -47.1695  -51.2026 C.3       5 UNK         0.0782 
     46 C46        29.9613  -46.4618  -49.8259 C.3       11 UNK        -0.0868 
     47 S47        31.5954  -45.8608  -49.2805 S.3       11 UNK        -0.2515 
     48 C48        31.4902  -44.0823  -49.6636 C.3       11 UNK         0.0199 
     49 N          30.9483  -48.3033  -51.2031 N.am      5 UNK        -0.4607 
     50 C          31.3000  -48.9881  -52.2963 C.2       4 UNK         0.5031 
     51 O          30.8987  -48.7205  -53.4298 O.2       4 UNK        -0.5119 
     52 CA         32.2127  -50.2021  -52.0779 C.3       4 UNK         0.0263 
     53 CB         31.3724  -51.4776  -51.9060 C.3       4 UNK        -0.1967 
     54 N          33.1047  -50.3739  -53.2205 N.am      4 UNK        -0.4237 
     55 C          34.2342  -49.6901  -53.4251 C.2       3 UNK         0.4908 
     56 O          34.7245  -48.9193  -52.5988 O.2       3 UNK        -0.5102 
     57 CA         34.9524  -49.9022  -54.7712 C.3       3 UNK         0.0241 
     58 CB         35.7480  -51.2225  -54.7746 C.3       3 UNK        -0.1971 
     59 N          34.0926  -49.7901  -55.9599 N.am      3 UNK        -0.4139 
     60 C          33.0681  -50.5628  -56.3499 C.2       2 UNK         0.5016 
     61 O          32.6518  -51.5312  -55.7104 O.2       2 UNK        -0.5319 
     62 CA         32.3834  -50.1571  -57.6695 C.3       2 UNK         0.0286 
     63 CB         31.3452  -51.1878  -58.1477 C.3       2 UNK        -0.1963 
     64 N          31.7648  -48.8294  -57.5588 N.am      2 UNK        -0.4790 
     65 C          32.4425  -47.6816  -57.6853 C.2       1 UNK         0.5024 
     66 O          33.6286  -47.6326  -58.0283 O.2       1 UNK        -0.4888 
     67 H67        33.9256  -43.4427  -58.8826 H         1 UNK         0.0892 
     68 H68        32.5320  -42.5737  -59.5303 H         1 UNK         0.0892 
     69 H69        33.1491  -42.1815  -57.9227 H         1 UNK         0.0892 
     70 H70        33.3787  -45.5278  -58.1947 H         1 UNK         0.3107 
     71 H71        30.7295  -46.4140  -57.8045 H         1 UNK         0.0773 
     72 H72        30.8871  -47.1001  -55.4314 H         1 UNK         0.0680 
     73 H73        30.8753  -45.3850  -55.5704 H         1 UNK         0.0680 
     74 H74        33.1772  -43.8611  -55.3294 H         1 UNK         0.0650 
     75 H75        34.2039  -44.2796  -53.9836 H         1 UNK         0.0650 
     76 H76        33.1914  -44.7222  -51.6996 H         1 UNK         0.1397 
     77 H77        29.3942  -42.8736  -50.9382 H         1 UNK         0.1363 
     78 H78        30.9009  -43.1055  -54.9436 H         1 UNK         0.1355 
     79 H79        28.3835  -41.5410  -52.7417 H         1 UNK         0.0707 
     80 H80        28.9932  -41.6017  -54.3749 H         1 UNK         0.0707 
     81 H81        27.2521  -42.8387  -56.2463 H         1 UNK         0.1034 
     82 H82        28.7754  -43.6150  -55.9226 H         1 UNK         0.1034 
     83 H83        27.5215  -45.8032  -55.5452 H         1 UNK         0.0482 
     84 H84        25.3064  -43.6437  -54.9436 H         1 UNK         0.3460 
     85 H85        23.8613  -44.4694  -55.4846 H         1 UNK         0.3460 
     86 H86        28.1610  -46.3534  -57.5355 H         1 UNK         0.2989 
     87 H87        27.2147  -45.3142  -60.7272 H         1 UNK         0.0559 
     88 H88        29.2847  -43.8662  -60.5567 H         1 UNK         0.0848 
     89 H89        29.5234  -45.3248  -61.5050 H         1 UNK         0.0848 
     90 H90        30.1454  -45.2301  -59.8614 H         1 UNK         0.0848 
     91 H91        29.0173  -47.3484  -59.7091 H         1 UNK         0.3144 
     92 H92        26.6112  -49.8645  -59.9308 H         1 UNK         0.0727 
     93 H93        28.8615  -50.8026  -59.9478 H         1 UNK         0.0790 
     94 H94        29.5864  -49.2525  -59.5266 H         1 UNK         0.0790 
     95 H95        28.8010  -49.4725  -61.0861 H         1 UNK         0.0790 
     96 H96        26.6189  -50.3417  -57.7850 H         1 UNK         0.3215 
     97 H97        26.7343  -50.2179  -55.6311 H         1 UNK         0.0863 
     98 H98        28.6531  -51.0045  -54.1659 H         1 UNK         0.0808 
     99 H99        29.7774  -50.2101  -55.2645 H         1 UNK         0.0808 
    100 H100       28.7761  -51.5374  -55.8341 H         1 UNK         0.0808 
    101 H101       28.4691  -48.0958  -54.4325 H         1 UNK         0.3118 
    102 H102       26.3530  -46.1437  -53.5753 H         1 UNK         0.0546 
    103 H103       24.5186  -47.0664  -52.2777 H         1 UNK         0.0828 
    104 H104       25.6130  -46.2285  -51.1934 H         1 UNK         0.0828 
    105 H105       25.6141  -47.9911  -51.2656 H         1 UNK         0.0828 
    106 H106       28.3672  -45.9314  -52.7206 H         1 UNK         0.3005 
    107 H107       30.3852  -46.4576  -51.9462 H         1 UNK         0.1257 
    108 H108       29.5831  -47.1436  -49.0615 H         1 UNK         0.0775 
    109 H109       29.2630  -45.6229  -49.8522 H         1 UNK         0.0775 
    110 H110       30.6747  -43.6405  -49.0887 H         1 UNK         0.0840 
    111 H111       32.4034  -43.5941  -49.3207 H         1 UNK         0.0840 
    112 H112       31.2979  -48.5899  -50.3010 H         1 UNK         0.2987 
    113 H113       32.8098  -50.0474  -51.1765 H         1 UNK         0.0785 
    114 H114       32.0040  -52.3470  -51.7230 H         1 UNK         0.0798 
    115 H115       30.7683  -51.6824  -52.7911 H         1 UNK         0.0798 
    116 H116       30.6902  -51.3863  -51.0596 H         1 UNK         0.0798 
    117 H117       32.7597  -50.9345  -53.9978 H         1 UNK         0.3079 
    118 H118       35.6747  -49.0892  -54.8635 H         1 UNK         0.0794 
    119 H119       36.4448  -51.2582  -53.9361 H         1 UNK         0.0786 
    120 H120       36.3341  -51.3292  -55.6874 H         1 UNK         0.0786 
    121 H121       35.0969  -52.0932  -54.6908 H         1 UNK         0.0786 
    122 H122       34.2874  -48.9869  -56.5485 H         1 UNK         0.3032 
    123 H123       33.1702  -50.1304  -58.4275 H         1 UNK         0.1094 
    124 H124       31.0971  -51.0263  -59.1949 H         1 UNK         0.0794 
    125 H125       31.7334  -52.2050  -58.0783 H         1 UNK         0.0794 
    126 H126       30.4264  -51.1469  -57.5649 H         1 UNK         0.0794 
    127 H127       30.7990  -48.7891  -57.2460 H         1 UNK         0.3016 
@<TRIPOS>BOND
     1    1    2 1    
     2    1   67 1    
     3    1   68 1    
     4    1   69 1    
     5    2    3 2    
     6    2    4 am   BACKBONE|DICT|INTERRES
     7    4    5 1    
     8    4   70 1    
     9    5    6 1    
    10    5   65 1    
    11    5   71 1    
    12    6    7 1    
    13    6   72 1    
    14    6   73 1    
    15    7    8 1    
    16    8    9 1    
    17    8   74 1    
    18    8   75 1    
    19    9   10 ar   
    20    9   14 ar   
    21   10   11 ar   
    22   10   76 1    
    23   11   12 ar   
    24   11   48 1    
    25   12   13 ar   
    26   12   77 1    
    27   13   14 ar   
    28   13   15 1    
    29   14   78 1    
    30   15   16 1    
    31   15   79 1    
    32   15   80 1    
    33   16   17 1    
    34   17   18 1    
    35   17   81 1    
    36   17   82 1    
    37   18   19 1    
    38   18   22 1    
    39   18   83 1    
    40   19   20 am   BACKBONE|DICT|INTERRES
    41   19   21 2    
    42   20   84 1    
    43   20   85 1    
    44   22   23 am   BACKBONE|DICT|INTERRES
    45   22   86 1    
    46   23   24 2    
    47   23   25 1    
    48   25   26 1    
    49   25   27 1    
    50   25   87 1    
    51   26   88 1    
    52   26   89 1    
    53   26   90 1    
    54   27   28 am   BACKBONE|DICT|INTERRES
    55   27   91 1    
    56   28   29 2    
    57   28   30 1    
    58   30   31 1    
    59   30   32 1    
    60   30   92 1    
    61   31   93 1    
    62   31   94 1    
    63   31   95 1    
    64   32   33 am   BACKBONE|DICT|INTERRES
    65   32   96 1    
    66   33   34 2    
    67   33   35 1    
    68   35   36 1    
    69   35   37 1    
    70   35   97 1    
    71   36   98 1    
    72   36   99 1    
    73   36  100 1    
    74   37   38 am   BACKBONE|DICT|INTERRES
    75   37  101 1    
    76   38   39 2    
    77   38   40 1    
    78   40   41 1    
    79   40   42 1    
    80   40  102 1    
    81   41  103 1    
    82   41  104 1    
    83   41  105 1    
    84   42   43 am   BACKBONE|DICT|INTERRES
    85   42  106 1    
    86   43   44 2    
    87   43   45 1    
    88   45   46 1    
    89   45   49 1    
    90   45  107 1    
    91   46   47 1    
    92   46  108 1    
    93   46  109 1    
    94   47   48 1    
    95   48  110 1    
    96   48  111 1    
    97   49   50 am   BACKBONE|DICT|INTERRES
    98   49  112 1    
    99   50   51 2    
   100   50   52 1    
   101   52   53 1    
   102   52   54 1    
   103   52  113 1    
   104   53  114 1    
   105   53  115 1    
   106   53  116 1    
   107   54   55 am   BACKBONE|DICT|INTERRES
   108   54  117 1    
   109   55   56 2    
   110   55   57 1    
   111   57   58 1    
   112   57   59 1    
   113   57  118 1    
   114   58  119 1    
   115   58  120 1    
   116   58  121 1    
   117   59   60 am   BACKBONE|DICT|INTERRES
   118   59  122 1    
   119   60   61 2    
   120   60   62 1    
   121   62   63 1    
   122   62   64 1    
   123   62  123 1    
   124   63  124 1    
   125   63  125 1    
   126   63  126 1    
   127   64   65 am   BACKBONE|DICT|INTERRES
   128   64  127 1    
   129   65   66 2    
@<TRIPOS>SUBSTRUCTURE
     1 UNK         1 GROUP             0       ****    0 ROOT    
