@<TRIPOS>MOLECULE
3R134
127   129    1
SMALL
USER_CHARGES


@<TRIPOS>ATOM
      1 CA         38.6493  -46.2524  -52.6791 C.3       0 UNK        -0.1968 
      2 C          37.5819  -46.7464  -53.6446 C.2       0 UNK         0.4852 
      3 O          37.9069  -47.4299  -54.6171 O.2       0 UNK        -0.5359 
      4 N          36.3144  -46.3982  -53.3883 N.am      1 UNK        -0.4300 
      5 CA         35.1479  -46.8153  -54.1744 C.3       1 UNK         0.0863 
      6 C6         33.8905  -45.9730  -53.8384 C.3       11 UNK        -0.0953 
      7 S7         34.1794  -44.1725  -53.9305 S.3       11 UNK        -0.2369 
      8 C8         33.2048  -43.6833  -55.3917 C.3       11 UNK         0.0226 
      9 C9         31.6937  -43.7158  -55.1729 C.ar      11 UNK        -0.0699 
     10 C10        31.1133  -43.1932  -54.0101 C.ar      11 UNK        -0.0804 
     11 C11        29.7253  -43.2076  -53.8375 C.ar      11 UNK        -0.0871 
     12 C12        28.9121  -43.7270  -54.8491 C.ar      11 UNK        -0.1008 
     13 C13        29.4767  -44.2460  -56.0168 C.ar      11 UNK        -0.0735 
     14 C14        30.8659  -44.2378  -56.1715 C.ar      11 UNK        -0.0945 
     15 C15        28.5939  -44.8337  -57.1064 C.3       11 UNK         0.0169 
     16 S16        28.0935  -43.5740  -58.3233 S.3       11 UNK        -0.2669 
     17 C17        26.6309  -42.8270  -57.5166 C.3       11 UNK        -0.0850 
     18 CA         25.3097  -43.0051  -58.3135 C.3       10 UNK         0.0855 
     19 C          25.2112  -42.0421  -59.5330 C.2       10 UNK         0.5543 
     20 N          24.9774  -42.5263  -60.7471 N.am      10 UNK        -0.7343 
     21 O          25.3274  -40.8297  -59.3704 O.2       10 UNK        -0.5027 
     22 N          25.0579  -44.4198  -58.6340 N.am      10 UNK        -0.4495 
     23 C          23.8588  -45.0144  -58.6513 C.2       10 UNK         0.4903 
     24 O          22.8131  -44.4376  -58.3503 O.2       10 UNK        -0.4860 
     25 CA         23.7908  -46.4944  -59.0908 C.3       9 UNK         0.0227 
     26 CB         22.8338  -46.6630  -60.2846 C.3       9 UNK        -0.1964 
     27 N          25.0844  -47.0970  -59.4393 N.am      9 UNK        -0.4231 
     28 C          26.0359  -47.4497  -58.5657 C.2       9 UNK         0.5014 
     29 O          25.9355  -47.2976  -57.3462 O.2       9 UNK        -0.5270 
     30 CA         27.3202  -48.0493  -59.1559 C.3       8 UNK         0.0284 
     31 CB         27.9707  -47.1178  -60.2031 C.3       8 UNK        -0.1977 
     32 N          28.2427  -48.3200  -58.0565 N.am      8 UNK        -0.4342 
     33 C          29.3322  -49.0933  -58.1062 C.2       8 UNK         0.5039 
     34 O          29.7248  -49.6571  -59.1291 O.2       8 UNK        -0.5547 
     35 CA         30.1310  -49.2748  -56.8017 C.3       7 UNK         0.0281 
     36 CB         31.2552  -48.2268  -56.7289 C.3       7 UNK        -0.1963 
     37 N          29.3500  -49.2116  -55.5605 N.am      7 UNK        -0.4444 
     38 C          28.2665  -49.9413  -55.2499 C.2       7 UNK         0.5104 
     39 O          27.7529  -50.7608  -56.0123 O.2       7 UNK        -0.5100 
     40 CA         27.6442  -49.7436  -53.8499 C.3       6 UNK         0.0396 
     41 CB         27.7321  -51.0441  -53.0345 C.3       6 UNK        -0.1801 
     42 N          28.2582  -48.6586  -53.0784 N.am      6 UNK        -0.4747 
     43 C          28.0849  -47.3487  -53.3129 C.2       6 UNK         0.5012 
     44 O          27.2882  -46.9179  -54.1455 O.2       6 UNK        -0.5003 
     45 CA         28.9726  -46.3484  -52.5379 C.3       5 UNK         0.0782 
     46 C46        28.1381  -45.2510  -51.8309 C.3       11 UNK        -0.0868 
     47 S47        29.1935  -43.9006  -51.1985 S.3       11 UNK        -0.2515 
     48 C48        29.1032  -42.6800  -52.5515 C.3       11 UNK         0.0199 
     49 N          29.9402  -46.9775  -51.6305 N.am      5 UNK        -0.4607 
     50 C          31.0358  -47.6293  -52.0336 C.2       4 UNK         0.5031 
     51 O          31.2934  -47.8293  -53.2211 O.2       4 UNK        -0.5119 
     52 CA         32.0064  -48.1368  -50.9503 C.3       4 UNK         0.0263 
     53 CB         31.4412  -48.1049  -49.5108 C.3       4 UNK        -0.1967 
     54 N          32.5247  -49.4623  -51.2964 N.am      4 UNK        -0.4237 
     55 C          31.8233  -50.6019  -51.4017 C.2       3 UNK         0.4908 
     56 O          30.6294  -50.7041  -51.1127 O.2       3 UNK        -0.5102 
     57 CA         32.6017  -51.8285  -51.9219 C.3       3 UNK         0.0241 
     58 CB         31.6847  -53.0034  -52.3288 C.3       3 UNK        -0.1971 
     59 N          33.5366  -51.4776  -53.0008 N.am      3 UNK        -0.4139 
     60 C          33.2209  -50.9691  -54.2019 C.2       2 UNK         0.5016 
     61 O          32.0709  -50.8407  -54.6196 O.2       2 UNK        -0.5319 
     62 CA         34.3996  -50.5058  -55.0787 C.3       2 UNK         0.0286 
     63 CB         34.2177  -50.9533  -56.5402 C.3       2 UNK        -0.1963 
     64 N          34.5924  -49.0505  -55.0467 N.am      2 UNK        -0.4790 
     65 C          34.8845  -48.3226  -53.9588 C.2       1 UNK         0.5024 
     66 O          34.9704  -48.7942  -52.8205 O.2       1 UNK        -0.4888 
     67 H67        38.2257  -45.6485  -51.8767 H         1 UNK         0.0892 
     68 H68        39.1679  -47.0985  -52.2289 H         1 UNK         0.0892 
     69 H69        39.3826  -45.6451  -53.2089 H         1 UNK         0.0892 
     70 H70        36.1066  -45.8412  -52.5724 H         1 UNK         0.3107 
     71 H71        35.3878  -46.6537  -55.2277 H         1 UNK         0.0773 
     72 H72        33.0644  -46.2415  -54.4996 H         1 UNK         0.0680 
     73 H73        33.5511  -46.1855  -52.8250 H         1 UNK         0.0680 
     74 H74        33.4915  -44.3219  -56.2288 H         1 UNK         0.0650 
     75 H75        33.4873  -42.6671  -55.6692 H         1 UNK         0.0650 
     76 H76        31.7423  -42.7839  -53.2315 H         1 UNK         0.1397 
     77 H77        27.8398  -43.7488  -54.7163 H         1 UNK         0.1363 
     78 H78        31.3020  -44.6327  -57.0789 H         1 UNK         0.1355 
     79 H79        29.1401  -45.6205  -57.6270 H         1 UNK         0.0707 
     80 H80        27.7157  -45.3136  -56.6714 H         1 UNK         0.0707 
     81 H81        26.4977  -43.2674  -56.5290 H         1 UNK         0.1034 
     82 H82        26.8369  -41.7714  -57.3298 H         1 UNK         0.1034 
     83 H83        24.5131  -42.6731  -57.6448 H         1 UNK         0.0482 
     84 H84        24.8714  -43.5173  -60.8886 H         1 UNK         0.3460 
     85 H85        24.9080  -41.8924  -61.5276 H         1 UNK         0.3460 
     86 H86        25.8712  -44.9572  -58.8927 H         1 UNK         0.2989 
     87 H87        23.3769  -47.0524  -58.2484 H         1 UNK         0.0559 
     88 H88        21.8374  -46.2872  -60.0475 H         1 UNK         0.0848 
     89 H89        22.7201  -47.7121  -60.5588 H         1 UNK         0.0848 
     90 H90        23.1840  -46.1209  -61.1638 H         1 UNK         0.0848 
     91 H91        25.2514  -47.2559  -60.4229 H         1 UNK         0.3144 
     92 H92        27.0572  -48.9986  -59.6268 H         1 UNK         0.0727 
     93 H93        28.2093  -46.1408  -59.7867 H         1 UNK         0.0790 
     94 H94        27.3149  -46.9556  -61.0587 H         1 UNK         0.0790 
     95 H95        28.8945  -47.5404  -60.5977 H         1 UNK         0.0790 
     96 H96        27.9286  -47.9560  -57.1632 H         1 UNK         0.3215 
     97 H97        30.5863  -50.2663  -56.8392 H         1 UNK         0.0863 
     98 H98        31.9031  -48.4021  -55.8706 H         1 UNK         0.0808 
     99 H99        30.8579  -47.2156  -56.6417 H         1 UNK         0.0808 
    100 H100       31.8824  -48.2593  -57.6207 H         1 UNK         0.0808 
    101 H101       29.7412  -48.6336  -54.8275 H         1 UNK         0.3118 
    102 H102       26.5887  -49.5046  -53.9949 H         1 UNK         0.0546 
    103 H103       28.7654  -51.3688  -52.9089 H         1 UNK         0.0828 
    104 H104       27.1971  -51.8542  -53.5317 H         1 UNK         0.0828 
    105 H105       27.2928  -50.9271  -52.0438 H         1 UNK         0.0828 
    106 H106       28.9518  -48.9319  -52.3944 H         1 UNK         0.3005 
    107 H107       29.5626  -45.8628  -53.3163 H         1 UNK         0.1257 
    108 H108       27.5811  -45.6771  -50.9948 H         1 UNK         0.0775 
    109 H109       27.3906  -44.8240  -52.5019 H         1 UNK         0.0775 
    110 H110       28.0631  -42.3925  -52.7140 H         1 UNK         0.0840 
    111 H111       29.6225  -41.7717  -52.2421 H         1 UNK         0.0840 
    112 H112       29.7816  -46.8444  -50.6425 H         1 UNK         0.2987 
    113 H113       32.8660  -47.4667  -50.9752 H         1 UNK         0.0785 
    114 H114       31.2331  -47.0835  -49.1899 H         1 UNK         0.0798 
    115 H115       32.1585  -48.5171  -48.8009 H         1 UNK         0.0798 
    116 H116       30.5183  -48.6779  -49.4149 H         1 UNK         0.0798 
    117 H117       33.4754  -49.4609  -51.6539 H         1 UNK         0.3079 
    118 H118       33.2148  -52.1691  -51.0862 H         1 UNK         0.0794 
    119 H119       32.2648  -53.8558  -52.6819 H         1 UNK         0.0786 
    120 H120       30.9874  -52.7217  -53.1182 H         1 UNK         0.0786 
    121 H121       31.0902  -53.3453  -51.4807 H         1 UNK         0.0786 
    122 H122       34.5157  -51.5169  -52.7511 H         1 UNK         0.3032 
    123 H123       35.3136  -50.9702  -54.7019 H         1 UNK         0.1094 
    124 H124       33.3505  -50.4817  -57.0043 H         1 UNK         0.0794 
    125 H125       35.0938  -50.7126  -57.1427 H         1 UNK         0.0794 
    126 H126       34.0706  -52.0325  -56.6012 H         1 UNK         0.0794 
    127 H127       34.5248  -48.5779  -55.9361 H         1 UNK         0.3016 
@<TRIPOS>BOND
     1    1    2 1    
     2    1   67 1    
     3    1   68 1    
     4    1   69 1    
     5    2    3 2    
     6    2    4 am   BACKBONE|DICT|INTERRES
     7    4    5 1    
     8    4   70 1    
     9    5    6 1    
    10    5   65 1    
    11    5   71 1    
    12    6    7 1    
    13    6   72 1    
    14    6   73 1    
    15    7    8 1    
    16    8    9 1    
    17    8   74 1    
    18    8   75 1    
    19    9   10 ar   
    20    9   14 ar   
    21   10   11 ar   
    22   10   76 1    
    23   11   12 ar   
    24   11   48 1    
    25   12   13 ar   
    26   12   77 1    
    27   13   14 ar   
    28   13   15 1    
    29   14   78 1    
    30   15   16 1    
    31   15   79 1    
    32   15   80 1    
    33   16   17 1    
    34   17   18 1    
    35   17   81 1    
    36   17   82 1    
    37   18   19 1    
    38   18   22 1    
    39   18   83 1    
    40   19   20 am   BACKBONE|DICT|INTERRES
    41   19   21 2    
    42   20   84 1    
    43   20   85 1    
    44   22   23 am   BACKBONE|DICT|INTERRES
    45   22   86 1    
    46   23   24 2    
    47   23   25 1    
    48   25   26 1    
    49   25   27 1    
    50   25   87 1    
    51   26   88 1    
    52   26   89 1    
    53   26   90 1    
    54   27   28 am   BACKBONE|DICT|INTERRES
    55   27   91 1    
    56   28   29 2    
    57   28   30 1    
    58   30   31 1    
    59   30   32 1    
    60   30   92 1    
    61   31   93 1    
    62   31   94 1    
    63   31   95 1    
    64   32   33 am   BACKBONE|DICT|INTERRES
    65   32   96 1    
    66   33   34 2    
    67   33   35 1    
    68   35   36 1    
    69   35   37 1    
    70   35   97 1    
    71   36   98 1    
    72   36   99 1    
    73   36  100 1    
    74   37   38 am   BACKBONE|DICT|INTERRES
    75   37  101 1    
    76   38   39 2    
    77   38   40 1    
    78   40   41 1    
    79   40   42 1    
    80   40  102 1    
    81   41  103 1    
    82   41  104 1    
    83   41  105 1    
    84   42   43 am   BACKBONE|DICT|INTERRES
    85   42  106 1    
    86   43   44 2    
    87   43   45 1    
    88   45   46 1    
    89   45   49 1    
    90   45  107 1    
    91   46   47 1    
    92   46  108 1    
    93   46  109 1    
    94   47   48 1    
    95   48  110 1    
    96   48  111 1    
    97   49   50 am   BACKBONE|DICT|INTERRES
    98   49  112 1    
    99   50   51 2    
   100   50   52 1    
   101   52   53 1    
   102   52   54 1    
   103   52  113 1    
   104   53  114 1    
   105   53  115 1    
   106   53  116 1    
   107   54   55 am   BACKBONE|DICT|INTERRES
   108   54  117 1    
   109   55   56 2    
   110   55   57 1    
   111   57   58 1    
   112   57   59 1    
   113   57  118 1    
   114   58  119 1    
   115   58  120 1    
   116   58  121 1    
   117   59   60 am   BACKBONE|DICT|INTERRES
   118   59  122 1    
   119   60   61 2    
   120   60   62 1    
   121   62   63 1    
   122   62   64 1    
   123   62  123 1    
   124   63  124 1    
   125   63  125 1    
   126   63  126 1    
   127   64   65 am   BACKBONE|DICT|INTERRES
   128   64  127 1    
   129   65   66 2    
@<TRIPOS>SUBSTRUCTURE
     1 UNK         1 GROUP             0       ****    0 ROOT    
