@<TRIPOS>MOLECULE
3R134
127   129    1
SMALL
USER_CHARGES


@<TRIPOS>ATOM
      1 CA         33.6077  -45.9347  -58.1337 C.3       0 UNK        -0.1968 
      2 C          33.6163  -46.1263  -56.6249 C.2       0 UNK         0.4852 
      3 O          33.6345  -47.2659  -56.1619 O.2       0 UNK        -0.5359 
      4 N          33.6272  -45.0198  -55.8666 N.am      1 UNK        -0.4300 
      5 CA         33.5491  -44.9392  -54.3972 C.3       1 UNK         0.0863 
      6 C6         33.7081  -43.4785  -53.8993 C.3       11 UNK        -0.0953 
      7 S7         32.6010  -42.2885  -54.7278 S.3       11 UNK        -0.2369 
      8 C8         31.5129  -41.7794  -53.3620 C.3       11 UNK         0.0226 
      9 C9         30.5011  -42.8607  -53.0199 C.ar      11 UNK        -0.0699 
     10 C10        30.6270  -43.6159  -51.8501 C.ar      11 UNK        -0.0804 
     11 C11        29.6793  -44.5952  -51.5329 C.ar      11 UNK        -0.0871 
     12 C12        28.6026  -44.8154  -52.3978 C.ar      11 UNK        -0.1008 
     13 C13        28.4906  -44.0917  -53.5882 C.ar      11 UNK        -0.0735 
     14 C14        29.4311  -43.1027  -53.8835 C.ar      11 UNK        -0.0945 
     15 C15        27.3799  -44.4032  -54.5790 C.3       11 UNK         0.0169 
     16 S16        27.6463  -46.0121  -55.3879 S.3       11 UNK        -0.2669 
     17 C17        29.3356  -45.8309  -56.0760 C.3       11 UNK        -0.0850 
     18 CA         29.5251  -46.5009  -57.4629 C.3       10 UNK         0.0855 
     19 C          29.5284  -48.0613  -57.4089 C.2       10 UNK         0.5543 
     20 N          29.6001  -48.7448  -58.5414 N.am      10 UNK        -0.7343 
     21 O          29.4466  -48.6641  -56.3432 O.2       10 UNK        -0.5027 
     22 N          28.5927  -45.9193  -58.4408 N.am      10 UNK        -0.4495 
     23 C          28.6220  -46.0150  -59.7741 C.2       10 UNK         0.4903 
     24 O          29.5348  -46.5563  -60.4005 O.2       10 UNK        -0.4860 
     25 CA         27.3960  -45.4432  -60.5200 C.3       9 UNK         0.0227 
     26 CB         27.4622  -45.6836  -62.0400 C.3       9 UNK        -0.1964 
     27 N          26.1401  -46.0022  -60.0016 N.am      9 UNK        -0.4231 
     28 C          25.5384  -45.6276  -58.8645 C.2       9 UNK         0.5014 
     29 O          25.9469  -44.6973  -58.1658 O.2       9 UNK        -0.5270 
     30 CA         24.3348  -46.4497  -58.3788 C.3       8 UNK         0.0284 
     31 CB         24.1508  -47.8032  -59.1003 C.3       8 UNK        -0.1977 
     32 N          24.5155  -46.6700  -56.9474 N.am      8 UNK        -0.4342 
     33 C          23.5519  -46.8487  -56.0392 C.2       8 UNK         0.5039 
     34 O          22.3480  -46.8645  -56.3046 O.2       8 UNK        -0.5547 
     35 CA         24.0420  -47.0540  -54.5921 C.3       7 UNK         0.0281 
     36 CB         22.9122  -47.4192  -53.6050 C.3       7 UNK        -0.1963 
     37 N          25.1489  -48.0193  -54.5272 N.am      7 UNK        -0.4444 
     38 C          25.1159  -49.3239  -54.8392 C.2       7 UNK         0.5104 
     39 O          24.0909  -49.9318  -55.1497 O.2       7 UNK        -0.5100 
     40 CA         26.4544  -50.0908  -54.8364 C.3       6 UNK         0.0396 
     41 CB         26.8110  -50.5305  -56.2664 C.3       6 UNK        -0.1801 
     42 N          27.5933  -49.3571  -54.2663 N.am      6 UNK        -0.4747 
     43 C          27.7623  -49.0948  -52.9619 C.2       6 UNK         0.5012 
     44 O          26.9408  -49.4137  -52.1009 O.2       6 UNK        -0.5003 
     45 CA         29.0897  -48.4267  -52.5539 C.3       5 UNK         0.0782 
     46 C46        29.1142  -48.0418  -51.0491 C.3       11 UNK        -0.0868 
     47 S47        30.5666  -47.0443  -50.5722 S.3       11 UNK        -0.2515 
     48 C48        29.8228  -45.4100  -50.2555 C.3       11 UNK         0.0199 
     49 N          30.1510  -49.3677  -52.9072 N.am      5 UNK        -0.4607 
     50 C          31.2417  -49.0764  -53.6215 C.2       4 UNK         0.5031 
     51 O          31.5592  -47.9398  -53.9720 O.2       4 UNK        -0.5119 
     52 CA         32.0993  -50.2812  -54.0285 C.3       4 UNK         0.0263 
     53 CB         31.3488  -51.1876  -55.0288 C.3       4 UNK        -0.1967 
     54 N          33.3615  -49.8364  -54.6160 N.am      4 UNK        -0.4237 
     55 C          34.4526  -50.6036  -54.7380 C.2       3 UNK         0.4908 
     56 O          34.5251  -51.7616  -54.3232 O.2       3 UNK        -0.5102 
     57 CA         35.6717  -49.9930  -55.4403 C.3       3 UNK         0.0241 
     58 CB         35.4983  -50.0371  -56.9683 C.3       3 UNK        -0.1971 
     59 N          35.9051  -48.6162  -55.0091 N.am      3 UNK        -0.4139 
     60 C          36.7178  -48.2668  -54.0022 C.2       2 UNK         0.5016 
     61 O          37.3607  -49.0756  -53.3312 O.2       2 UNK        -0.5319 
     62 CA         36.8724  -46.7661  -53.6968 C.3       2 UNK         0.0286 
     63 CB         38.2045  -46.2405  -54.2573 C.3       2 UNK        -0.1963 
     64 N          35.7811  -45.9500  -54.2310 N.am      2 UNK        -0.4790 
     65 C          34.5760  -45.8246  -53.6571 C.2       1 UNK         0.5024 
     66 O          34.2749  -46.3530  -52.5867 O.2       1 UNK        -0.4888 
     67 H67        34.5728  -46.2195  -58.5516 H         1 UNK         0.0892 
     68 H68        32.8434  -46.5642  -58.5885 H         1 UNK         0.0892 
     69 H69        33.4044  -44.9010  -58.4127 H         1 UNK         0.0892 
     70 H70        33.6171  -44.1194  -56.3250 H         1 UNK         0.3107 
     71 H71        32.5553  -45.2946  -54.1152 H         1 UNK         0.0773 
     72 H72        33.5476  -43.4288  -52.8207 H         1 UNK         0.0680 
     73 H73        34.7293  -43.1287  -54.0642 H         1 UNK         0.0680 
     74 H74        30.9813  -40.8738  -53.6579 H         1 UNK         0.0650 
     75 H75        32.1125  -41.5088  -52.4915 H         1 UNK         0.0650 
     76 H76        31.4614  -43.4399  -51.1851 H         1 UNK         0.1397 
     77 H77        27.8668  -45.5716  -52.1646 H         1 UNK         0.1363 
     78 H78        29.3472  -42.5334  -54.7993 H         1 UNK         0.1355 
     79 H79        27.3069  -43.6286  -55.3443 H         1 UNK         0.0707 
     80 H80        26.4207  -44.4155  -54.0602 H         1 UNK         0.0707 
     81 H81        29.5714  -44.7705  -56.1690 H         1 UNK         0.1034 
     82 H82        30.0547  -46.2233  -55.3545 H         1 UNK         0.1034 
     83 H83        30.5294  -46.2339  -57.7933 H         1 UNK         0.0482 
     84 H84        29.6638  -48.2408  -59.4185 H         1 UNK         0.3460 
     85 H85        29.5999  -49.7511  -58.5215 H         1 UNK         0.3460 
     86 H86        27.7825  -45.4596  -58.0376 H         1 UNK         0.2989 
     87 H87        27.3956  -44.3634  -60.3567 H         1 UNK         0.0559 
     88 H88        28.3624  -45.2392  -62.4671 H         1 UNK         0.0848 
     89 H89        26.6101  -45.2351  -62.5509 H         1 UNK         0.0848 
     90 H90        27.4779  -46.7471  -62.2819 H         1 UNK         0.0848 
     91 H91        25.7661  -46.7997  -60.4960 H         1 UNK         0.3144 
     92 H92        23.4453  -45.8368  -58.5380 H         1 UNK         0.0727 
     93 H93        25.0316  -48.4397  -59.0016 H         1 UNK         0.0790 
     94 H94        23.9470  -47.6664  -60.1629 H         1 UNK         0.0790 
     95 H95        23.3043  -48.3534  -58.6886 H         1 UNK         0.0790 
     96 H96        25.4709  -46.5879  -56.6223 H         1 UNK         0.3215 
     97 H97        24.4525  -46.0950  -54.2725 H         1 UNK         0.0863 
     98 H98        22.3973  -48.3359  -53.8933 H         1 UNK         0.0808 
     99 H99        22.1624  -46.6282  -53.5645 H         1 UNK         0.0808 
    100 H100       23.2970  -47.5535  -52.5941 H         1 UNK         0.0808 
    101 H101       26.0589  -47.6301  -54.3201 H         1 UNK         0.3118 
    102 H102       26.3059  -50.9910  -54.2367 H         1 UNK         0.0546 
    103 H103       26.9177  -49.6749  -56.9341 H         1 UNK         0.0828 
    104 H104       26.0348  -51.1726  -56.6847 H         1 UNK         0.0828 
    105 H105       27.7441  -51.0938  -56.2902 H         1 UNK         0.0828 
    106 H106       28.3191  -49.0743  -54.9257 H         1 UNK         0.3005 
    107 H107       29.1832  -47.5167  -53.1510 H         1 UNK         0.1257 
    108 H108       29.1101  -48.9406  -50.4296 H         1 UNK         0.0775 
    109 H109       28.2091  -47.4963  -50.7780 H         1 UNK         0.0775 
    110 H110       28.8559  -45.5176  -49.7622 H         1 UNK         0.0840 
    111 H111       30.4578  -44.8777  -49.5455 H         1 UNK         0.0840 
    112 H112       29.9615  -50.3335  -52.6803 H         1 UNK         0.2987 
    113 H113       32.3162  -50.8465  -53.1195 H         1 UNK         0.0785 
    114 H114       30.3733  -51.4918  -54.6484 H         1 UNK         0.0798 
    115 H115       31.9063  -52.1004  -55.2378 H         1 UNK         0.0798 
    116 H116       31.1820  -50.6771  -55.9778 H         1 UNK         0.0798 
    117 H117       33.3588  -48.8790  -54.9657 H         1 UNK         0.3079 
    118 H118       36.5413  -50.6055  -55.1916 H         1 UNK         0.0794 
    119 H119       36.3755  -49.6379  -57.4777 H         1 UNK         0.0786 
    120 H120       34.6304  -49.4654  -57.2986 H         1 UNK         0.0786 
    121 H121       35.3614  -51.0626  -57.3137 H         1 UNK         0.0786 
    122 H122       35.3332  -47.9041  -55.4539 H         1 UNK         0.3032 
    123 H123       36.8935  -46.6580  -52.6096 H         1 UNK         0.1094 
    124 H124       38.2468  -46.3223  -55.3442 H         1 UNK         0.0794 
    125 H125       38.3626  -45.1951  -53.9914 H         1 UNK         0.0794 
    126 H126       39.0470  -46.8053  -53.8555 H         1 UNK         0.0794 
    127 H127       35.9471  -45.4752  -55.1070 H         1 UNK         0.3016 
@<TRIPOS>BOND
     1    1    2 1    
     2    1   67 1    
     3    1   68 1    
     4    1   69 1    
     5    2    3 2    
     6    2    4 am   BACKBONE|DICT|INTERRES
     7    4    5 1    
     8    4   70 1    
     9    5    6 1    
    10    5   65 1    
    11    5   71 1    
    12    6    7 1    
    13    6   72 1    
    14    6   73 1    
    15    7    8 1    
    16    8    9 1    
    17    8   74 1    
    18    8   75 1    
    19    9   10 ar   
    20    9   14 ar   
    21   10   11 ar   
    22   10   76 1    
    23   11   12 ar   
    24   11   48 1    
    25   12   13 ar   
    26   12   77 1    
    27   13   14 ar   
    28   13   15 1    
    29   14   78 1    
    30   15   16 1    
    31   15   79 1    
    32   15   80 1    
    33   16   17 1    
    34   17   18 1    
    35   17   81 1    
    36   17   82 1    
    37   18   19 1    
    38   18   22 1    
    39   18   83 1    
    40   19   20 am   BACKBONE|DICT|INTERRES
    41   19   21 2    
    42   20   84 1    
    43   20   85 1    
    44   22   23 am   BACKBONE|DICT|INTERRES
    45   22   86 1    
    46   23   24 2    
    47   23   25 1    
    48   25   26 1    
    49   25   27 1    
    50   25   87 1    
    51   26   88 1    
    52   26   89 1    
    53   26   90 1    
    54   27   28 am   BACKBONE|DICT|INTERRES
    55   27   91 1    
    56   28   29 2    
    57   28   30 1    
    58   30   31 1    
    59   30   32 1    
    60   30   92 1    
    61   31   93 1    
    62   31   94 1    
    63   31   95 1    
    64   32   33 am   BACKBONE|DICT|INTERRES
    65   32   96 1    
    66   33   34 2    
    67   33   35 1    
    68   35   36 1    
    69   35   37 1    
    70   35   97 1    
    71   36   98 1    
    72   36   99 1    
    73   36  100 1    
    74   37   38 am   BACKBONE|DICT|INTERRES
    75   37  101 1    
    76   38   39 2    
    77   38   40 1    
    78   40   41 1    
    79   40   42 1    
    80   40  102 1    
    81   41  103 1    
    82   41  104 1    
    83   41  105 1    
    84   42   43 am   BACKBONE|DICT|INTERRES
    85   42  106 1    
    86   43   44 2    
    87   43   45 1    
    88   45   46 1    
    89   45   49 1    
    90   45  107 1    
    91   46   47 1    
    92   46  108 1    
    93   46  109 1    
    94   47   48 1    
    95   48  110 1    
    96   48  111 1    
    97   49   50 am   BACKBONE|DICT|INTERRES
    98   49  112 1    
    99   50   51 2    
   100   50   52 1    
   101   52   53 1    
   102   52   54 1    
   103   52  113 1    
   104   53  114 1    
   105   53  115 1    
   106   53  116 1    
   107   54   55 am   BACKBONE|DICT|INTERRES
   108   54  117 1    
   109   55   56 2    
   110   55   57 1    
   111   57   58 1    
   112   57   59 1    
   113   57  118 1    
   114   58  119 1    
   115   58  120 1    
   116   58  121 1    
   117   59   60 am   BACKBONE|DICT|INTERRES
   118   59  122 1    
   119   60   61 2    
   120   60   62 1    
   121   62   63 1    
   122   62   64 1    
   123   62  123 1    
   124   63  124 1    
   125   63  125 1    
   126   63  126 1    
   127   64   65 am   BACKBONE|DICT|INTERRES
   128   64  127 1    
   129   65   66 2    
@<TRIPOS>SUBSTRUCTURE
     1 UNK         1 GROUP             0       ****    0 ROOT    
