@<TRIPOS>MOLECULE
3R134
127   129    1
SMALL
USER_CHARGES


@<TRIPOS>ATOM
      1 CA         30.9675  -46.5337  -52.1611 C.3       0 UNK        -0.1968 
      2 C          32.2971  -46.0720  -51.5897 C.2       0 UNK         0.4852 
      3 O          32.6163  -46.3926  -50.4430 O.2       0 UNK        -0.5359 
      4 N          33.0789  -45.3227  -52.3776 N.am      1 UNK        -0.4300 
      5 CA         34.4080  -44.8223  -52.0134 C.3       1 UNK         0.0863 
      6 C6         34.8275  -43.5998  -52.8689 C.3       11 UNK        -0.0953 
      7 S7         33.8228  -42.1252  -52.4865 S.3       11 UNK        -0.2369 
      8 C8         33.0338  -41.7582  -54.0849 C.3       11 UNK         0.0226 
      9 C9         31.9625  -42.7777  -54.4393 C.ar      11 UNK        -0.0699 
     10 C10        32.2084  -43.7489  -55.4132 C.ar      11 UNK        -0.0804 
     11 C11        31.2244  -44.6840  -55.7402 C.ar      11 UNK        -0.0871 
     12 C12        29.9892  -44.6441  -55.0870 C.ar      11 UNK        -0.1008 
     13 C13        29.7248  -43.6721  -54.1152 C.ar      11 UNK        -0.0735 
     14 C14        30.7200  -42.7420  -53.7982 C.ar      11 UNK        -0.0945 
     15 C15        28.3953  -43.6382  -53.3629 C.3       11 UNK         0.0169 
     16 S16        26.9343  -43.9689  -54.4030 S.3       11 UNK        -0.2669 
     17 C17        26.8239  -42.4287  -55.3719 C.3       11 UNK        -0.0850 
     18 CA         25.8282  -42.5422  -56.5586 C.3       10 UNK         0.0855 
     19 C          25.5870  -41.1537  -57.2024 C.2       10 UNK         0.5543 
     20 N          24.6456  -40.3827  -56.6767 N.am      10 UNK        -0.7343 
     21 O          26.2636  -40.7562  -58.1500 O.2       10 UNK        -0.5027 
     22 N          26.3034  -43.4888  -57.5755 N.am      10 UNK        -0.4495 
     23 C          25.8362  -44.7227  -57.7866 C.2       10 UNK         0.4903 
     24 O          24.9078  -45.2335  -57.1558 O.2       10 UNK        -0.4860 
     25 CA         26.5388  -45.5223  -58.8931 C.3       9 UNK         0.0227 
     26 CB         28.0656  -45.5613  -58.6764 C.3       9 UNK        -0.1964 
     27 N          25.9995  -46.8818  -58.9274 N.am      9 UNK        -0.4231 
     28 C          26.0915  -47.7294  -59.9596 C.2       9 UNK         0.5014 
     29 O          26.6407  -47.4441  -61.0259 O.2       9 UNK        -0.5270 
     30 CA         25.4780  -49.1269  -59.7659 C.3       8 UNK         0.0284 
     31 CB         25.8970  -50.1317  -60.8585 C.3       8 UNK        -0.1977 
     32 N          25.8239  -49.6584  -58.4476 N.am      8 UNK        -0.4342 
     33 C          25.0353  -50.4517  -57.7078 C.2       8 UNK         0.5039 
     34 O          23.9299  -50.8484  -58.0804 O.2       8 UNK        -0.5547 
     35 CA         25.5436  -50.8808  -56.3147 C.3       7 UNK         0.0281 
     36 CB         26.1051  -52.3107  -56.3674 C.3       7 UNK        -0.1963 
     37 N          26.5606  -49.9881  -55.7537 N.am      7 UNK        -0.4444 
     38 C          26.3574  -48.6977  -55.4480 C.2       7 UNK         0.5104 
     39 O          25.2491  -48.1641  -55.4762 O.2       7 UNK        -0.5100 
     40 CA         27.5887  -47.8395  -55.0970 C.3       6 UNK         0.0396 
     41 CB         27.6234  -47.5488  -53.5893 C.3       6 UNK        -0.1801 
     42 N          28.8812  -48.4050  -55.5043 N.am      6 UNK        -0.4747 
     43 C          29.2432  -48.7698  -56.7451 C.2       6 UNK         0.5012 
     44 O          28.5180  -48.6459  -57.7318 O.2       6 UNK        -0.5003 
     45 CA         30.6160  -49.4597  -56.9004 C.3       5 UNK         0.0782 
     46 C46        31.7175  -48.4704  -57.3594 C.3       11 UNK        -0.0868 
     47 S47        32.1831  -47.2460  -56.0817 S.3       11 UNK        -0.2515 
     48 C48        31.4881  -45.7324  -56.8061 C.3       11 UNK         0.0199 
     49 N          31.0446  -50.2169  -55.7187 N.am      5 UNK        -0.4607 
     50 C          30.3748  -51.1946  -55.0930 C.2       4 UNK         0.5031 
     51 O          29.2445  -51.5562  -55.4233 O.2       4 UNK        -0.5119 
     52 CA         31.0775  -51.8867  -53.9049 C.3       4 UNK         0.0263 
     53 CB         30.9326  -53.4168  -53.9895 C.3       4 UNK        -0.1967 
     54 N          32.5038  -51.5521  -53.7906 N.am      4 UNK        -0.4237 
     55 C          32.9932  -50.4362  -53.2358 C.2       3 UNK         0.4908 
     56 O          32.2940  -49.5556  -52.7310 O.2       3 UNK        -0.5102 
     57 CA         34.5120  -50.2524  -53.3124 C.3       3 UNK         0.0241 
     58 CB         34.9432  -49.8173  -54.7270 C.3       3 UNK        -0.1971 
     59 N          34.9123  -49.2432  -52.3379 N.am      3 UNK        -0.4139 
     60 C          36.1415  -49.0846  -51.8351 C.2       2 UNK         0.5016 
     61 O          37.1016  -49.7912  -52.1500 O.2       2 UNK        -0.5319 
     62 CA         36.3228  -47.9597  -50.7954 C.3       2 UNK         0.0286 
     63 CB         37.7938  -47.5157  -50.6406 C.3       2 UNK        -0.1963 
     64 N          35.4483  -46.8005  -51.0237 N.am      2 UNK        -0.4790 
     65 C          35.4430  -45.9656  -52.0742 C.2       1 UNK         0.5024 
     66 O          36.1858  -46.0765  -53.0510 O.2       1 UNK        -0.4888 
     67 H67        30.7273  -47.5342  -51.8026 H         1 UNK         0.0892 
     68 H68        30.1737  -45.8587  -51.8465 H         1 UNK         0.0892 
     69 H69        30.9917  -46.5673  -53.2495 H         1 UNK         0.0892 
     70 H70        32.7598  -45.0787  -53.3054 H         1 UNK         0.3107 
     71 H71        34.3728  -44.4868  -50.9741 H         1 UNK         0.0773 
     72 H72        34.7769  -43.8321  -53.9338 H         1 UNK         0.0680 
     73 H73        35.8669  -43.3330  -52.6678 H         1 UNK         0.0680 
     74 H74        33.7964  -41.7028  -54.8633 H         1 UNK         0.0650 
     75 H75        32.5814  -40.7669  -54.0319 H         1 UNK         0.0650 
     76 H76        33.1648  -43.7783  -55.9179 H         1 UNK         0.1397 
     77 H77        29.2346  -45.3761  -55.3338 H         1 UNK         0.1363 
     78 H78        30.5359  -41.9925  -53.0405 H         1 UNK         0.1355 
     79 H79        28.4270  -44.3855  -52.5703 H         1 UNK         0.0707 
     80 H80        28.2571  -42.6753  -52.8686 H         1 UNK         0.0707 
     81 H81        27.8185  -42.1598  -55.7332 H         1 UNK         0.1034 
     82 H82        26.5209  -41.6325  -54.6890 H         1 UNK         0.1034 
     83 H83        24.8661  -42.8839  -56.1711 H         1 UNK         0.0482 
     84 H84        24.0900  -40.6958  -55.8955 H         1 UNK         0.3460 
     85 H85        24.4811  -39.4706  -57.0735 H         1 UNK         0.3460 
     86 H86        27.0193  -43.1208  -58.1862 H         1 UNK         0.2989 
     87 H87        26.3192  -45.0339  -59.8446 H         1 UNK         0.0559 
     88 H88        28.3037  -45.9253  -57.6781 H         1 UNK         0.0848 
     89 H89        28.5148  -44.5736  -58.7811 H         1 UNK         0.0848 
     90 H90        28.5622  -46.2129  -59.3953 H         1 UNK         0.0848 
     91 H91        25.4764  -47.1451  -58.0998 H         1 UNK         0.3144 
     92 H92        24.3964  -48.9886  -59.8264 H         1 UNK         0.0727 
     93 H93        25.4119  -51.0976  -60.7173 H         1 UNK         0.0790 
     94 H94        26.9754  -50.2945  -60.8585 H         1 UNK         0.0790 
     95 H95        25.6177  -49.7740  -61.8503 H         1 UNK         0.0790 
     96 H96        26.7264  -49.3629  -58.0795 H         1 UNK         0.3215 
     97 H97        24.6855  -50.8728  -55.6392 H         1 UNK         0.0863 
     98 H98        26.4030  -52.6578  -55.3778 H         1 UNK         0.0808 
     99 H99        26.9763  -52.3768  -57.0206 H         1 UNK         0.0808 
    100 H100       25.3588  -53.0109  -56.7456 H         1 UNK         0.0808 
    101 H101       27.5016  -50.3614  -55.6819 H         1 UNK         0.3118 
    102 H102       27.4647  -46.8926  -55.6244 H         1 UNK         0.0546 
    103 H103       26.6778  -47.1221  -53.2513 H         1 UNK         0.0828 
    104 H104       28.3999  -46.8262  -53.3457 H         1 UNK         0.0828 
    105 H105       27.8031  -48.4522  -53.0055 H         1 UNK         0.0828 
    106 H106       29.5516  -48.5692  -54.7669 H         1 UNK         0.3005 
    107 H107       30.4842  -50.1947  -57.6977 H         1 UNK         0.1257 
    108 H108       31.4202  -47.9647  -58.2803 H         1 UNK         0.0775 
    109 H109       32.6182  -49.0285  -57.6200 H         1 UNK         0.0775 
    110 H110       32.1720  -45.3469  -57.5638 H         1 UNK         0.0840 
    111 H111       30.5597  -45.9645  -57.3247 H         1 UNK         0.0840 
    112 H112       31.9445  -49.9559  -55.3448 H         1 UNK         0.2987 
    113 H113       30.5668  -51.5507  -52.9998 H         1 UNK         0.0785 
    114 H114       29.8828  -53.7134  -53.9997 H         1 UNK         0.0798 
    115 H115       31.3939  -53.9073  -53.1321 H         1 UNK         0.0798 
    116 H116       31.3925  -53.8163  -54.8941 H         1 UNK         0.0798 
    117 H117       33.1494  -52.2107  -54.2040 H         1 UNK         0.3079 
    118 H118       34.9852  -51.2031  -53.0572 H         1 UNK         0.0794 
    119 H119       34.5244  -48.8459  -54.9919 H         1 UNK         0.0786 
    120 H120       34.6198  -50.5333  -55.4833 H         1 UNK         0.0786 
    121 H121       36.0278  -49.7396  -54.8041 H         1 UNK         0.0786 
    122 H122       34.1542  -48.6580  -52.0078 H         1 UNK         0.3032 
    123 H123       36.0118  -48.3906  -49.8422 H         1 UNK         0.1094 
    124 H124       38.2043  -47.1377  -51.5775 H         1 UNK         0.0794 
    125 H125       37.8958  -46.7332  -49.8887 H         1 UNK         0.0794 
    126 H126       38.4231  -48.3487  -50.3247 H         1 UNK         0.0794 
    127 H127       34.7140  -46.6614  -50.3359 H         1 UNK         0.3016 
@<TRIPOS>BOND
     1    1    2 1    
     2    1   67 1    
     3    1   68 1    
     4    1   69 1    
     5    2    3 2    
     6    2    4 am   BACKBONE|DICT|INTERRES
     7    4    5 1    
     8    4   70 1    
     9    5    6 1    
    10    5   65 1    
    11    5   71 1    
    12    6    7 1    
    13    6   72 1    
    14    6   73 1    
    15    7    8 1    
    16    8    9 1    
    17    8   74 1    
    18    8   75 1    
    19    9   10 ar   
    20    9   14 ar   
    21   10   11 ar   
    22   10   76 1    
    23   11   12 ar   
    24   11   48 1    
    25   12   13 ar   
    26   12   77 1    
    27   13   14 ar   
    28   13   15 1    
    29   14   78 1    
    30   15   16 1    
    31   15   79 1    
    32   15   80 1    
    33   16   17 1    
    34   17   18 1    
    35   17   81 1    
    36   17   82 1    
    37   18   19 1    
    38   18   22 1    
    39   18   83 1    
    40   19   20 am   BACKBONE|DICT|INTERRES
    41   19   21 2    
    42   20   84 1    
    43   20   85 1    
    44   22   23 am   BACKBONE|DICT|INTERRES
    45   22   86 1    
    46   23   24 2    
    47   23   25 1    
    48   25   26 1    
    49   25   27 1    
    50   25   87 1    
    51   26   88 1    
    52   26   89 1    
    53   26   90 1    
    54   27   28 am   BACKBONE|DICT|INTERRES
    55   27   91 1    
    56   28   29 2    
    57   28   30 1    
    58   30   31 1    
    59   30   32 1    
    60   30   92 1    
    61   31   93 1    
    62   31   94 1    
    63   31   95 1    
    64   32   33 am   BACKBONE|DICT|INTERRES
    65   32   96 1    
    66   33   34 2    
    67   33   35 1    
    68   35   36 1    
    69   35   37 1    
    70   35   97 1    
    71   36   98 1    
    72   36   99 1    
    73   36  100 1    
    74   37   38 am   BACKBONE|DICT|INTERRES
    75   37  101 1    
    76   38   39 2    
    77   38   40 1    
    78   40   41 1    
    79   40   42 1    
    80   40  102 1    
    81   41  103 1    
    82   41  104 1    
    83   41  105 1    
    84   42   43 am   BACKBONE|DICT|INTERRES
    85   42  106 1    
    86   43   44 2    
    87   43   45 1    
    88   45   46 1    
    89   45   49 1    
    90   45  107 1    
    91   46   47 1    
    92   46  108 1    
    93   46  109 1    
    94   47   48 1    
    95   48  110 1    
    96   48  111 1    
    97   49   50 am   BACKBONE|DICT|INTERRES
    98   49  112 1    
    99   50   51 2    
   100   50   52 1    
   101   52   53 1    
   102   52   54 1    
   103   52  113 1    
   104   53  114 1    
   105   53  115 1    
   106   53  116 1    
   107   54   55 am   BACKBONE|DICT|INTERRES
   108   54  117 1    
   109   55   56 2    
   110   55   57 1    
   111   57   58 1    
   112   57   59 1    
   113   57  118 1    
   114   58  119 1    
   115   58  120 1    
   116   58  121 1    
   117   59   60 am   BACKBONE|DICT|INTERRES
   118   59  122 1    
   119   60   61 2    
   120   60   62 1    
   121   62   63 1    
   122   62   64 1    
   123   62  123 1    
   124   63  124 1    
   125   63  125 1    
   126   63  126 1    
   127   64   65 am   BACKBONE|DICT|INTERRES
   128   64  127 1    
   129   65   66 2    
@<TRIPOS>SUBSTRUCTURE
     1 UNK         1 GROUP             0       ****    0 ROOT    
