@<TRIPOS>MOLECULE
3R134
127   129    1
SMALL
USER_CHARGES


@<TRIPOS>ATOM
      1 CA         36.3269  -44.4497  -48.7863 C.3       0 UNK        -0.1968 
      2 C          36.3662  -45.1194  -50.1520 C.2       0 UNK         0.4852 
      3 O          37.4379  -45.5253  -50.6033 O.2       0 UNK        -0.5359 
      4 N          35.2055  -45.2425  -50.8100 N.am      1 UNK        -0.4300 
      5 CA         35.0452  -45.8547  -52.1361 C.3       1 UNK         0.0863 
      6 C6         33.8409  -45.2564  -52.9033 C.3       11 UNK        -0.0953 
      7 S7         32.2428  -45.3288  -52.0157 S.3       11 UNK        -0.2369 
      8 C8         31.5244  -43.6940  -52.4045 C.3       11 UNK         0.0226 
      9 C9         30.9183  -43.6569  -53.8025 C.ar      11 UNK        -0.0699 
     10 C10        31.7446  -43.5655  -54.9250 C.ar      11 UNK        -0.0804 
     11 C11        31.2081  -43.6243  -56.2127 C.ar      11 UNK        -0.0871 
     12 C12        29.8241  -43.7103  -56.3781 C.ar      11 UNK        -0.1008 
     13 C13        28.9788  -43.7546  -55.2654 C.ar      11 UNK        -0.0735 
     14 C14        29.5329  -43.7337  -53.9798 C.ar      11 UNK        -0.0945 
     15 C15        27.4751  -43.9075  -55.4464 C.3       11 UNK         0.0169 
     16 S16        26.6629  -42.3500  -55.9260 S.3       11 UNK        -0.2669 
     17 C17        26.5761  -42.5021  -57.7462 C.3       11 UNK        -0.0850 
     18 CA         25.2206  -43.0824  -58.2343 C.3       10 UNK         0.0855 
     19 C          25.0806  -42.9763  -59.7826 C.2       10 UNK         0.5543 
     20 N          24.8645  -44.0608  -60.5192 N.am      10 UNK        -0.7343 
     21 O          25.1624  -41.8787  -60.3283 O.2       10 UNK        -0.5027 
     22 N          25.0006  -44.4367  -57.7064 N.am      10 UNK        -0.4495 
     23 C          23.8101  -45.0121  -57.5077 C.2       10 UNK         0.4903 
     24 O          22.7332  -44.4381  -57.6775 O.2       10 UNK        -0.4860 
     25 CA         23.8427  -46.4831  -57.0433 C.3       9 UNK         0.0227 
     26 CB         22.5225  -47.2285  -57.3317 C.3       9 UNK        -0.1964 
     27 N          24.9903  -47.2409  -57.5665 N.am      9 UNK        -0.4231 
     28 C          25.2957  -47.4603  -58.8582 C.2       9 UNK         0.5014 
     29 O          24.6475  -46.9935  -59.7962 O.2       9 UNK        -0.5270 
     30 CA         26.5480  -48.3016  -59.1793 C.3       8 UNK         0.0284 
     31 CB         27.6157  -47.4277  -59.8596 C.3       8 UNK        -0.1977 
     32 N          27.1320  -48.9583  -58.0055 N.am      8 UNK        -0.4342 
     33 C          26.6092  -50.0392  -57.4038 C.2       8 UNK         0.5039 
     34 O          25.6374  -50.6529  -57.8465 O.2       8 UNK        -0.5547 
     35 CA         27.2364  -50.5106  -56.0743 C.3       7 UNK         0.0281 
     36 CB         28.0863  -51.7714  -56.2990 C.3       7 UNK        -0.1963 
     37 N          28.0511  -49.5072  -55.3832 N.am      7 UNK        -0.4444 
     38 C          27.6416  -48.2955  -54.9835 C.2       7 UNK         0.5104 
     39 O          26.4879  -47.8831  -55.1090 O.2       7 UNK        -0.5100 
     40 CA         28.7240  -47.3535  -54.4308 C.3       6 UNK         0.0396 
     41 CB         28.8239  -47.4732  -52.9044 C.3       6 UNK        -0.1801 
     42 N          30.0436  -47.5406  -55.0516 N.am      6 UNK        -0.4747 
     43 C          30.2969  -47.3835  -56.3629 C.2       6 UNK         0.5012 
     44 O          29.4261  -47.0915  -57.1830 O.2       6 UNK        -0.5003 
     45 CA         31.7320  -47.6698  -56.8573 C.3       5 UNK         0.0782 
     46 C46        32.6337  -46.4116  -56.8851 C.3       11 UNK        -0.0868 
     47 S47        32.1912  -45.2651  -58.2409 S.3       11 UNK        -0.2515 
     48 C48        32.1345  -43.6360  -57.4198 C.3       11 UNK         0.0199 
     49 N          32.3456  -48.7616  -56.0939 N.am      5 UNK        -0.4607 
     50 C          32.1115  -50.0564  -56.3456 C.2       4 UNK         0.5031 
     51 O          31.4173  -50.4583  -57.2791 O.2       4 UNK        -0.5119 
     52 CA         32.7394  -51.0776  -55.3840 C.3       4 UNK         0.0263 
     53 CB         34.2240  -51.2958  -55.7173 C.3       4 UNK        -0.1967 
     54 N          32.6077  -50.7269  -53.9674 N.am      4 UNK        -0.4237 
     55 C          31.4618  -50.5061  -53.3104 C.2       3 UNK         0.4908 
     56 O          30.3591  -50.5028  -53.8574 O.2       3 UNK        -0.5102 
     57 CA         31.5307  -50.2300  -51.7937 C.3       3 UNK         0.0241 
     58 CB         31.0936  -51.4738  -50.9953 C.3       3 UNK        -0.1971 
     59 N          32.8055  -49.6953  -51.2889 N.am      3 UNK        -0.4139 
     60 C          34.0110  -50.2817  -51.2488 C.2       2 UNK         0.5016 
     61 O          34.2386  -51.4081  -51.6924 O.2       2 UNK        -0.5319 
     62 CA         35.1567  -49.4474  -50.6427 C.3       2 UNK         0.0286 
     63 CB         36.5506  -49.9688  -51.0538 C.3       2 UNK        -0.1963 
     64 N          35.0514  -48.0058  -50.9157 N.am      2 UNK        -0.4790 
     65 C          35.0242  -47.4009  -52.1160 C.2       1 UNK         0.5024 
     66 O          34.9894  -48.0111  -53.1864 O.2       1 UNK        -0.4888 
     67 H67        36.6962  -45.1331  -48.0221 H         1 UNK         0.0892 
     68 H68        35.3178  -44.1447  -48.5098 H         1 UNK         0.0892 
     69 H69        36.9605  -43.5632  -48.7855 H         1 UNK         0.0892 
     70 H70        34.3528  -44.8938  -50.3938 H         1 UNK         0.3107 
     71 H71        35.9329  -45.5994  -52.7194 H         1 UNK         0.0773 
     72 H72        33.7233  -45.7331  -53.8768 H         1 UNK         0.0680 
     73 H73        34.0750  -44.2128  -53.1132 H         1 UNK         0.0680 
     74 H74        30.7590  -43.4704  -51.6600 H         1 UNK         0.0650 
     75 H75        32.2813  -42.9153  -52.3008 H         1 UNK         0.0650 
     76 H76        32.8144  -43.4918  -54.8018 H         1 UNK         0.1397 
     77 H77        29.4146  -43.7767  -57.3752 H         1 UNK         0.1363 
     78 H78        28.8863  -43.8031  -53.1159 H         1 UNK         0.1355 
     79 H79        27.0189  -44.2536  -54.5176 H         1 UNK         0.0707 
     80 H80        27.2776  -44.6883  -56.1809 H         1 UNK         0.0707 
     81 H81        27.4057  -43.1023  -58.1191 H         1 UNK         0.1034 
     82 H82        26.7284  -41.5012  -58.1549 H         1 UNK         0.1034 
     83 H83        24.4341  -42.4416  -57.8309 H         1 UNK         0.0482 
     84 H84        24.7734  -43.9621  -61.5176 H         1 UNK         0.3460 
     85 H85        24.7702  -44.9778  -60.0973 H         1 UNK         0.3460 
     86 H86        25.8254  -44.9977  -57.5643 H         1 UNK         0.2989 
     87 H87        23.9732  -46.4528  -55.9606 H         1 UNK         0.0559 
     88 H88        21.6825  -46.7490  -56.8277 H         1 UNK         0.0848 
     89 H89        22.5638  -48.2591  -56.9792 H         1 UNK         0.0848 
     90 H90        22.2935  -47.2476  -58.3978 H         1 UNK         0.0848 
     91 H91        25.6008  -47.6325  -56.8538 H         1 UNK         0.3144 
     92 H92        26.2451  -49.0752  -59.8880 H         1 UNK         0.0727 
     93 H93        28.5213  -47.9955  -60.0736 H         1 UNK         0.0790 
     94 H94        27.8927  -46.5722  -59.2428 H         1 UNK         0.0790 
     95 H95        27.2491  -47.0337  -60.8085 H         1 UNK         0.0790 
     96 H96        27.9344  -48.4983  -57.5861 H         1 UNK         0.3215 
     97 H97        26.4113  -50.7680  -55.4071 H         1 UNK         0.0863 
     98 H98        28.4719  -52.1647  -55.3580 H         1 UNK         0.0808 
     99 H99        28.9368  -51.5708  -56.9514 H         1 UNK         0.0808 
    100 H100       27.4977  -52.5634  -56.7641 H         1 UNK         0.0808 
    101 H101       29.0061  -49.7734  -55.1600 H         1 UNK         0.3118 
    102 H102       28.4077  -46.3398  -54.6608 H         1 UNK         0.0546 
    103 H103       27.8908  -47.1601  -52.4343 H         1 UNK         0.0828 
    104 H104       29.6155  -46.8423  -52.5009 H         1 UNK         0.0828 
    105 H105       29.0067  -48.5002  -52.5934 H         1 UNK         0.0828 
    106 H106       30.7968  -47.8245  -54.4444 H         1 UNK         0.3005 
    107 H107       31.6325  -48.0089  -57.8919 H         1 UNK         0.1257 
    108 H108       33.6714  -46.7052  -57.0515 H         1 UNK         0.0775 
    109 H109       32.6225  -45.9104  -55.9196 H         1 UNK         0.0775 
    110 H110       33.1481  -43.3492  -57.1349 H         1 UNK         0.0840 
    111 H111       31.7984  -42.8883  -58.1395 H         1 UNK         0.0840 
    112 H112       32.9437  -48.5132  -55.3184 H         1 UNK         0.2987 
    113 H113       32.2150  -52.0243  -55.5296 H         1 UNK         0.0785 
    114 H114       34.8155  -50.3974  -55.5348 H         1 UNK         0.0798 
    115 H115       34.3546  -51.5672  -56.7659 H         1 UNK         0.0798 
    116 H116       34.6494  -52.1023  -55.1196 H         1 UNK         0.0798 
    117 H117       33.4498  -50.7789  -53.4036 H         1 UNK         0.3079 
    118 H118       30.8007  -49.4470  -51.5928 H         1 UNK         0.0794 
    119 H119       31.7671  -52.3169  -51.1523 H         1 UNK         0.0786 
    120 H120       30.0961  -51.7979  -51.2956 H         1 UNK         0.0786 
    121 H121       31.0578  -51.2669  -49.9258 H         1 UNK         0.0786 
    122 H122       32.7589  -48.7485  -50.9377 H         1 UNK         0.3032 
    123 H123       35.0684  -49.5661  -49.5613 H         1 UNK         0.1094 
    124 H124       36.6938  -51.0020  -50.7347 H         1 UNK         0.0794 
    125 H125       36.6903  -49.9406  -52.1351 H         1 UNK         0.0794 
    126 H126       37.3454  -49.3784  -50.5978 H         1 UNK         0.0794 
    127 H127       35.0605  -47.4054  -50.1028 H         1 UNK         0.3016 
@<TRIPOS>BOND
     1    1    2 1    
     2    1   67 1    
     3    1   68 1    
     4    1   69 1    
     5    2    3 2    
     6    2    4 am   BACKBONE|DICT|INTERRES
     7    4    5 1    
     8    4   70 1    
     9    5    6 1    
    10    5   65 1    
    11    5   71 1    
    12    6    7 1    
    13    6   72 1    
    14    6   73 1    
    15    7    8 1    
    16    8    9 1    
    17    8   74 1    
    18    8   75 1    
    19    9   10 ar   
    20    9   14 ar   
    21   10   11 ar   
    22   10   76 1    
    23   11   12 ar   
    24   11   48 1    
    25   12   13 ar   
    26   12   77 1    
    27   13   14 ar   
    28   13   15 1    
    29   14   78 1    
    30   15   16 1    
    31   15   79 1    
    32   15   80 1    
    33   16   17 1    
    34   17   18 1    
    35   17   81 1    
    36   17   82 1    
    37   18   19 1    
    38   18   22 1    
    39   18   83 1    
    40   19   20 am   BACKBONE|DICT|INTERRES
    41   19   21 2    
    42   20   84 1    
    43   20   85 1    
    44   22   23 am   BACKBONE|DICT|INTERRES
    45   22   86 1    
    46   23   24 2    
    47   23   25 1    
    48   25   26 1    
    49   25   27 1    
    50   25   87 1    
    51   26   88 1    
    52   26   89 1    
    53   26   90 1    
    54   27   28 am   BACKBONE|DICT|INTERRES
    55   27   91 1    
    56   28   29 2    
    57   28   30 1    
    58   30   31 1    
    59   30   32 1    
    60   30   92 1    
    61   31   93 1    
    62   31   94 1    
    63   31   95 1    
    64   32   33 am   BACKBONE|DICT|INTERRES
    65   32   96 1    
    66   33   34 2    
    67   33   35 1    
    68   35   36 1    
    69   35   37 1    
    70   35   97 1    
    71   36   98 1    
    72   36   99 1    
    73   36  100 1    
    74   37   38 am   BACKBONE|DICT|INTERRES
    75   37  101 1    
    76   38   39 2    
    77   38   40 1    
    78   40   41 1    
    79   40   42 1    
    80   40  102 1    
    81   41  103 1    
    82   41  104 1    
    83   41  105 1    
    84   42   43 am   BACKBONE|DICT|INTERRES
    85   42  106 1    
    86   43   44 2    
    87   43   45 1    
    88   45   46 1    
    89   45   49 1    
    90   45  107 1    
    91   46   47 1    
    92   46  108 1    
    93   46  109 1    
    94   47   48 1    
    95   48  110 1    
    96   48  111 1    
    97   49   50 am   BACKBONE|DICT|INTERRES
    98   49  112 1    
    99   50   51 2    
   100   50   52 1    
   101   52   53 1    
   102   52   54 1    
   103   52  113 1    
   104   53  114 1    
   105   53  115 1    
   106   53  116 1    
   107   54   55 am   BACKBONE|DICT|INTERRES
   108   54  117 1    
   109   55   56 2    
   110   55   57 1    
   111   57   58 1    
   112   57   59 1    
   113   57  118 1    
   114   58  119 1    
   115   58  120 1    
   116   58  121 1    
   117   59   60 am   BACKBONE|DICT|INTERRES
   118   59  122 1    
   119   60   61 2    
   120   60   62 1    
   121   62   63 1    
   122   62   64 1    
   123   62  123 1    
   124   63  124 1    
   125   63  125 1    
   126   63  126 1    
   127   64   65 am   BACKBONE|DICT|INTERRES
   128   64  127 1    
   129   65   66 2    
@<TRIPOS>SUBSTRUCTURE
     1 UNK         1 GROUP             0       ****    0 ROOT    
