@<TRIPOS>MOLECULE
3R134
127   129    1
SMALL
USER_CHARGES


@<TRIPOS>ATOM
      1 CA         33.0458  -41.0735  -49.5211 C.3       0 UNK        -0.1968 
      2 C          33.4375  -42.3890  -50.1784 C.2       0 UNK         0.4852 
      3 O          34.1362  -43.1954  -49.5617 O.2       0 UNK        -0.5359 
      4 N          33.0014  -42.6055  -51.4257 N.am      1 UNK        -0.4300 
      5 CA         33.2340  -43.8308  -52.1962 C.3       1 UNK         0.0863 
      6 C6         32.8918  -43.6377  -53.6898 C.3       11 UNK        -0.0953 
      7 S7         34.0282  -42.4769  -54.5240 S.3       11 UNK        -0.2369 
      8 C8         33.0174  -41.8865  -55.9245 C.3       11 UNK         0.0226 
      9 C9         32.2917  -43.0277  -56.6224 C.ar      11 UNK        -0.0699 
     10 C10        33.0052  -43.9725  -57.3635 C.ar      11 UNK        -0.0804 
     11 C11        32.3503  -45.0758  -57.9164 C.ar      11 UNK        -0.0871 
     12 C12        30.9709  -45.2205  -57.7386 C.ar      11 UNK        -0.1008 
     13 C13        30.2411  -44.2740  -57.0137 C.ar      11 UNK        -0.0735 
     14 C14        30.9096  -43.1690  -56.4742 C.ar      11 UNK        -0.0945 
     15 C15        28.7356  -44.4658  -56.8466 C.3       11 UNK         0.0169 
     16 S16        28.0391  -43.7761  -55.3053 S.3       11 UNK        -0.2669 
     17 C17        28.7521  -44.8624  -54.0142 C.3       11 UNK        -0.0850 
     18 CA         27.7196  -45.8455  -53.4000 C.3       10 UNK         0.0855 
     19 C          26.6038  -45.1035  -52.6011 C.2       10 UNK         0.5543 
     20 N          25.3418  -45.1520  -53.0128 N.am      10 UNK        -0.7343 
     21 O          26.8923  -44.4794  -51.5833 O.2       10 UNK        -0.5027 
     22 N          27.2552  -46.8042  -54.4120 N.am      10 UNK        -0.4495 
     23 C          26.5456  -47.9158  -54.1847 C.2       10 UNK         0.4903 
     24 O          26.1979  -48.2955  -53.0667 O.2       10 UNK        -0.4860 
     25 CA         26.1887  -48.7441  -55.4307 C.3       9 UNK         0.0227 
     26 CB         25.0357  -49.7413  -55.1914 C.3       9 UNK        -0.1964 
     27 N          25.9428  -47.9052  -56.6111 N.am      9 UNK        -0.4231 
     28 C          24.9465  -47.0256  -56.8050 C.2       9 UNK         0.5014 
     29 O          24.0656  -46.8025  -55.9734 O.2       9 UNK        -0.5270 
     30 CA         24.9334  -46.2331  -58.1319 C.3       8 UNK         0.0284 
     31 CB         24.9240  -44.7175  -57.8664 C.3       8 UNK        -0.1977 
     32 N          26.0523  -46.5524  -59.0265 N.am      8 UNK        -0.4342 
     33 C          26.1457  -47.6535  -59.7835 C.2       8 UNK         0.5039 
     34 O          25.2547  -48.4988  -59.8735 O.2       8 UNK        -0.5547 
     35 CA         27.4787  -47.8952  -60.5176 C.3       7 UNK         0.0281 
     36 CB         28.3496  -46.6283  -60.6909 C.3       7 UNK        -0.1963 
     37 N          28.2345  -48.9730  -59.8648 N.am      7 UNK        -0.4444 
     38 C          28.6765  -48.9939  -58.5980 C.2       7 UNK         0.5104 
     39 O          28.5577  -48.0441  -57.8203 O.2       7 UNK        -0.5100 
     40 CA         29.2942  -50.3039  -58.0726 C.3       6 UNK         0.0396 
     41 CB         29.5338  -51.3889  -59.1479 C.3       6 UNK        -0.1801 
     42 N          30.5039  -50.0514  -57.2851 N.am      6 UNK        -0.4747 
     43 C          31.6778  -49.5698  -57.7292 C.2       6 UNK         0.5012 
     44 O          31.8985  -49.3158  -58.9135 O.2       6 UNK        -0.5003 
     45 CA         32.8083  -49.3585  -56.6906 C.3       5 UNK         0.0782 
     46 C46        33.0698  -47.8559  -56.4163 C.3       11 UNK        -0.0868 
     47 S47        34.2342  -47.0991  -57.6020 S.3       11 UNK        -0.2515 
     48 C48        33.1365  -46.1261  -58.6857 C.3       11 UNK         0.0199 
     49 N          32.5612  -50.0752  -55.4358 N.am      5 UNK        -0.4607 
     50 C          32.6267  -51.4066  -55.2875 C.2       4 UNK         0.5031 
     51 O          33.0171  -52.1684  -56.1722 O.2       4 UNK        -0.5119 
     52 CA         32.1625  -52.0011  -53.9425 C.3       4 UNK         0.0263 
     53 CB         33.3743  -52.4505  -53.1095 C.3       4 UNK        -0.1967 
     54 N          31.3390  -51.0981  -53.1319 N.am      4 UNK        -0.4237 
     55 C          30.1513  -50.5829  -53.4841 C.2       3 UNK         0.4908 
     56 O          29.5706  -50.8539  -54.5354 O.2       3 UNK        -0.5102 
     57 CA         29.5338  -49.5457  -52.5297 C.3       3 UNK         0.0241 
     58 CB         28.4846  -50.2072  -51.6230 C.3       3 UNK        -0.1971 
     59 N          30.5118  -48.8276  -51.7032 N.am      3 UNK        -0.4139 
     60 C          31.4837  -48.0369  -52.1798 C.2       2 UNK         0.5016 
     61 O          31.6792  -47.8379  -53.3815 O.2       2 UNK        -0.5319 
     62 CA         32.4447  -47.4457  -51.1368 C.3       2 UNK         0.0286 
     63 CB         33.5656  -48.4517  -50.8239 C.3       2 UNK        -0.1963 
     64 N          33.0505  -46.1980  -51.6024 N.am      2 UNK        -0.4790 
     65 C          32.4302  -45.0119  -51.6154 C.2       1 UNK         0.5024 
     66 O          31.2769  -44.8351  -51.2139 O.2       1 UNK        -0.4888 
     67 H67        33.9376  -40.5101  -49.2480 H         1 UNK         0.0892 
     68 H68        32.4713  -41.2637  -48.6149 H         1 UNK         0.0892 
     69 H69        32.4413  -40.4515  -50.1812 H         1 UNK         0.0892 
     70 H70        32.4226  -41.9126  -51.8772 H         1 UNK         0.3107 
     71 H71        34.2960  -44.0743  -52.1166 H         1 UNK         0.0773 
     72 H72        32.9474  -44.5875  -54.2271 H         1 UNK         0.0680 
     73 H73        31.8644  -43.2845  -53.7959 H         1 UNK         0.0680 
     74 H74        32.3073  -41.1442  -55.5568 H         1 UNK         0.0650 
     75 H75        33.6613  -41.3706  -56.6380 H         1 UNK         0.0650 
     76 H76        34.0765  -43.8714  -57.4737 H         1 UNK         0.1397 
     77 H77        30.4671  -46.0828  -58.1540 H         1 UNK         0.1363 
     78 H78        30.3621  -42.4286  -55.9084 H         1 UNK         0.1355 
     79 H79        28.2401  -43.9872  -57.6918 H         1 UNK         0.0707 
     80 H80        28.4824  -45.5250  -56.8973 H         1 UNK         0.0707 
     81 H81        29.1807  -44.2314  -53.2330 H         1 UNK         0.1034 
     82 H82        29.5971  -45.4190  -54.4243 H         1 UNK         0.1034 
     83 H83        28.2560  -46.4363  -52.6550 H         1 UNK         0.0482 
     84 H84        25.0944  -45.6734  -53.8404 H         1 UNK         0.3460 
     85 H85        24.6302  -44.6715  -52.4859 H         1 UNK         0.3460 
     86 H86        27.4772  -46.5712  -55.3674 H         1 UNK         0.2989 
     87 H87        27.0801  -49.3299  -55.6602 H         1 UNK         0.0559 
     88 H88        24.1211  -49.2381  -54.8767 H         1 UNK         0.0848 
     89 H89        25.2960  -50.4563  -54.4099 H         1 UNK         0.0848 
     90 H90        24.8125  -50.3137  -56.0917 H         1 UNK         0.0848 
     91 H91        26.6676  -47.9544  -57.3210 H         1 UNK         0.3144 
     92 H92        24.0031  -46.4894  -58.6432 H         1 UNK         0.0727 
     93 H93        24.0486  -44.4281  -57.2833 H         1 UNK         0.0790 
     94 H94        24.8905  -44.1494  -58.7962 H         1 UNK         0.0790 
     95 H95        25.8023  -44.3981  -57.3066 H         1 UNK         0.0790 
     96 H96        26.8447  -45.9276  -59.0054 H         1 UNK         0.3215 
     97 H97        27.2185  -48.2530  -61.5152 H         1 UNK         0.0863 
     98 H98        29.2370  -46.8474  -61.2848 H         1 UNK         0.0808 
     99 H99        28.6900  -46.2141  -59.7427 H         1 UNK         0.0808 
    100 H100       27.8013  -45.8452  -61.2165 H         1 UNK         0.0808 
    101 H101       28.3489  -49.8139  -60.4129 H         1 UNK         0.3118 
    102 H102       28.5678  -50.7080  -57.3662 H         1 UNK         0.0546 
    103 H103       28.5957  -51.7121  -59.6007 H         1 UNK         0.0828 
    104 H104       29.9923  -52.2757  -58.7101 H         1 UNK         0.0828 
    105 H105       30.1884  -51.0433  -59.9486 H         1 UNK         0.0828 
    106 H106       30.4013  -50.2210  -56.2894 H         1 UNK         0.3005 
    107 H107       33.7117  -49.7920  -57.1264 H         1 UNK         0.1257 
    108 H108       33.5393  -47.7336  -55.4386 H         1 UNK         0.0775 
    109 H109       32.1378  -47.2939  -56.3484 H         1 UNK         0.0775 
    110 H110       33.7423  -45.6327  -59.4469 H         1 UNK         0.0840 
    111 H111       32.4654  -46.7959  -59.2239 H         1 UNK         0.0840 
    112 H112       32.2369  -49.5074  -54.6608 H         1 UNK         0.2987 
    113 H113       31.5566  -52.8798  -54.1731 H         1 UNK         0.0785 
    114 H114       33.9956  -53.1511  -53.6694 H         1 UNK         0.0798 
    115 H115       33.0636  -52.9575  -52.1958 H         1 UNK         0.0798 
    116 H116       34.0067  -51.6069  -52.8293 H         1 UNK         0.0798 
    117 H117       31.7285  -50.8132  -52.2457 H         1 UNK         0.3079 
    118 H118       29.0368  -48.8033  -53.1536 H         1 UNK         0.0794 
    119 H119       28.9315  -50.9423  -50.9526 H         1 UNK         0.0786 
    120 H120       27.7273  -50.7222  -52.2163 H         1 UNK         0.0786 
    121 H121       27.9630  -49.4670  -51.0159 H         1 UNK         0.0786 
    122 H122       30.4312  -48.9523  -50.7038 H         1 UNK         0.3032 
    123 H123       31.8867  -47.2406  -50.2198 H         1 UNK         0.1094 
    124 H124       34.1427  -48.7047  -51.7147 H         1 UNK         0.0794 
    125 H125       34.2563  -48.0563  -50.0787 H         1 UNK         0.0794 
    126 H126       33.1612  -49.3818  -50.4225 H         1 UNK         0.0794 
    127 H127       33.9772  -46.2694  -51.9972 H         1 UNK         0.3016 
@<TRIPOS>BOND
     1    1    2 1    
     2    1   67 1    
     3    1   68 1    
     4    1   69 1    
     5    2    3 2    
     6    2    4 am   BACKBONE|DICT|INTERRES
     7    4    5 1    
     8    4   70 1    
     9    5    6 1    
    10    5   65 1    
    11    5   71 1    
    12    6    7 1    
    13    6   72 1    
    14    6   73 1    
    15    7    8 1    
    16    8    9 1    
    17    8   74 1    
    18    8   75 1    
    19    9   10 ar   
    20    9   14 ar   
    21   10   11 ar   
    22   10   76 1    
    23   11   12 ar   
    24   11   48 1    
    25   12   13 ar   
    26   12   77 1    
    27   13   14 ar   
    28   13   15 1    
    29   14   78 1    
    30   15   16 1    
    31   15   79 1    
    32   15   80 1    
    33   16   17 1    
    34   17   18 1    
    35   17   81 1    
    36   17   82 1    
    37   18   19 1    
    38   18   22 1    
    39   18   83 1    
    40   19   20 am   BACKBONE|DICT|INTERRES
    41   19   21 2    
    42   20   84 1    
    43   20   85 1    
    44   22   23 am   BACKBONE|DICT|INTERRES
    45   22   86 1    
    46   23   24 2    
    47   23   25 1    
    48   25   26 1    
    49   25   27 1    
    50   25   87 1    
    51   26   88 1    
    52   26   89 1    
    53   26   90 1    
    54   27   28 am   BACKBONE|DICT|INTERRES
    55   27   91 1    
    56   28   29 2    
    57   28   30 1    
    58   30   31 1    
    59   30   32 1    
    60   30   92 1    
    61   31   93 1    
    62   31   94 1    
    63   31   95 1    
    64   32   33 am   BACKBONE|DICT|INTERRES
    65   32   96 1    
    66   33   34 2    
    67   33   35 1    
    68   35   36 1    
    69   35   37 1    
    70   35   97 1    
    71   36   98 1    
    72   36   99 1    
    73   36  100 1    
    74   37   38 am   BACKBONE|DICT|INTERRES
    75   37  101 1    
    76   38   39 2    
    77   38   40 1    
    78   40   41 1    
    79   40   42 1    
    80   40  102 1    
    81   41  103 1    
    82   41  104 1    
    83   41  105 1    
    84   42   43 am   BACKBONE|DICT|INTERRES
    85   42  106 1    
    86   43   44 2    
    87   43   45 1    
    88   45   46 1    
    89   45   49 1    
    90   45  107 1    
    91   46   47 1    
    92   46  108 1    
    93   46  109 1    
    94   47   48 1    
    95   48  110 1    
    96   48  111 1    
    97   49   50 am   BACKBONE|DICT|INTERRES
    98   49  112 1    
    99   50   51 2    
   100   50   52 1    
   101   52   53 1    
   102   52   54 1    
   103   52  113 1    
   104   53  114 1    
   105   53  115 1    
   106   53  116 1    
   107   54   55 am   BACKBONE|DICT|INTERRES
   108   54  117 1    
   109   55   56 2    
   110   55   57 1    
   111   57   58 1    
   112   57   59 1    
   113   57  118 1    
   114   58  119 1    
   115   58  120 1    
   116   58  121 1    
   117   59   60 am   BACKBONE|DICT|INTERRES
   118   59  122 1    
   119   60   61 2    
   120   60   62 1    
   121   62   63 1    
   122   62   64 1    
   123   62  123 1    
   124   63  124 1    
   125   63  125 1    
   126   63  126 1    
   127   64   65 am   BACKBONE|DICT|INTERRES
   128   64  127 1    
   129   65   66 2    
@<TRIPOS>SUBSTRUCTURE
     1 UNK         1 GROUP             0       ****    0 ROOT    
