@<TRIPOS>MOLECULE
3R134
127   129    1
SMALL
USER_CHARGES


@<TRIPOS>ATOM
      1 CA         30.2566  -46.1748  -52.6995 C.3       0 UNK        -0.1968 
      2 C          31.3485  -45.6254  -51.7945 C.2       0 UNK         0.4852 
      3 O          31.0499  -44.8429  -50.8910 O.2       0 UNK        -0.5359 
      4 N          32.5986  -46.0412  -52.0266 N.am      1 UNK        -0.4300 
      5 CA         33.7817  -45.6505  -51.2572 C.3       1 UNK         0.0863 
      6 C6         34.6157  -44.5450  -51.9657 C.3       11 UNK        -0.0953 
      7 S7         33.7888  -42.9213  -51.9437 S.3       11 UNK        -0.2369 
      8 C8         34.1140  -42.3032  -53.6228 C.3       11 UNK         0.0226 
      9 C9         33.0734  -42.7730  -54.6293 C.ar      11 UNK        -0.0699 
     10 C10        33.3879  -43.7520  -55.5781 C.ar      11 UNK        -0.0804 
     11 C11        32.4542  -44.1149  -56.5544 C.ar      11 UNK        -0.0871 
     12 C12        31.2037  -43.4911  -56.5779 C.ar      11 UNK        -0.1008 
     13 C13        30.8631  -42.5435  -55.6110 C.ar      11 UNK        -0.0735 
     14 C14        31.8043  -42.1843  -54.6422 C.ar      11 UNK        -0.0945 
     15 C15        29.4937  -41.8816  -55.6363 C.3       11 UNK         0.0169 
     16 S16        28.2791  -42.7447  -54.5853 S.3       11 UNK        -0.2669 
     17 C17        27.8554  -44.2324  -55.5579 C.3       11 UNK        -0.0850 
     18 CA         26.6961  -43.9872  -56.5638 C.3       10 UNK         0.0855 
     19 C          27.2104  -43.5392  -57.9561 C.2       10 UNK         0.5543 
     20 N          26.8456  -42.3467  -58.4059 N.am      10 UNK        -0.7343 
     21 O          27.9664  -44.2525  -58.6113 O.2       10 UNK        -0.5027 
     22 N          25.8388  -45.1712  -56.6998 N.am      10 UNK        -0.4495 
     23 C          24.5397  -45.1176  -57.0266 C.2       10 UNK         0.4903 
     24 O          23.9258  -44.0634  -57.2025 O.2       10 UNK        -0.4860 
     25 CA         23.7922  -46.4603  -57.1449 C.3       9 UNK         0.0227 
     26 CB         22.4134  -46.3314  -57.8282 C.3       9 UNK        -0.1964 
     27 N          24.5919  -47.5193  -57.7675 N.am      9 UNK        -0.4231 
     28 C          25.0799  -47.5545  -59.0190 C.2       9 UNK         0.5014 
     29 O          24.8784  -46.6736  -59.8561 O.2       9 UNK        -0.5270 
     30 CA         25.9422  -48.7723  -59.4119 C.3       8 UNK         0.0284 
     31 CB         27.2586  -48.3289  -60.0769 C.3       8 UNK        -0.1977 
     32 N          26.2598  -49.6124  -58.2549 N.am      8 UNK        -0.4342 
     33 C          25.6148  -50.7332  -57.9018 C.2       8 UNK         0.5039 
     34 O          24.7238  -51.2507  -58.5756 O.2       8 UNK        -0.5547 
     35 CA         26.0044  -51.3733  -56.5538 C.3       7 UNK         0.0281 
     36 CB         26.9739  -52.5449  -56.7769 C.3       7 UNK        -0.1963 
     37 N          26.5998  -50.4225  -55.6071 N.am      7 UNK        -0.4444 
     38 C          25.9382  -49.3987  -55.0420 C.2       7 UNK         0.5104 
     39 O          24.7372  -49.1932  -55.2112 O.2       7 UNK        -0.5100 
     40 CA         26.7601  -48.3816  -54.2249 C.3       6 UNK         0.0396 
     41 CB         26.7399  -48.7465  -52.7332 C.3       6 UNK        -0.1801 
     42 N          28.1485  -48.2664  -54.6789 N.am      6 UNK        -0.4747 
     43 C          28.5305  -47.9109  -55.9149 C.2       6 UNK         0.5012 
     44 O          27.7397  -47.4893  -56.7585 O.2       6 UNK        -0.5003 
     45 CA         30.0153  -48.1060  -56.2949 C.3       5 UNK         0.0782 
     46 C46        30.6915  -46.7367  -56.5234 C.3       11 UNK        -0.0868 
     47 S47        32.4539  -46.8588  -56.9754 S.3       11 UNK        -0.2515 
     48 C48        32.7877  -45.1779  -57.5918 C.3       11 UNK         0.0199 
     49 N          30.7611  -48.9394  -55.3417 N.am      5 UNK        -0.4607 
     50 C          30.5353  -50.2298  -55.0713 C.2       4 UNK         0.5031 
     51 O          29.6067  -50.8672  -55.5710 O.2       4 UNK        -0.5119 
     52 CA         31.4795  -50.8968  -54.0507 C.3       4 UNK         0.0263 
     53 CB         31.2322  -52.4122  -53.9281 C.3       4 UNK        -0.1967 
     54 N          32.8995  -50.6684  -54.3406 N.am      4 UNK        -0.4237 
     55 C          33.5764  -49.5372  -54.1057 C.2       3 UNK         0.4908 
     56 O          33.0584  -48.4988  -53.6780 O.2       3 UNK        -0.5102 
     57 CA         35.0745  -49.5583  -54.4404 C.3       3 UNK         0.0241 
     58 CB         35.3291  -48.9572  -55.8314 C.3       3 UNK        -0.1971 
     59 N          35.7923  -48.7733  -53.4423 N.am      3 UNK        -0.4139 
     60 C          36.2606  -49.2528  -52.2828 C.2       2 UNK         0.5016 
     61 O          36.3292  -50.4510  -52.0058 O.2       2 UNK        -0.5319 
     62 CA         36.6871  -48.2040  -51.2396 C.3       2 UNK         0.0286 
     63 CB         38.1666  -47.8269  -51.4185 C.3       2 UNK        -0.1963 
     64 N          35.8598  -46.9927  -51.3047 N.am      2 UNK        -0.4790 
     65 C          34.5625  -46.9457  -50.9618 C.2       1 UNK         0.5024 
     66 O          33.9732  -47.8926  -50.4359 O.2       1 UNK        -0.4888 
     67 H67        30.6252  -46.9921  -53.3159 H         1 UNK         0.0892 
     68 H68        29.4238  -46.5477  -52.1042 H         1 UNK         0.0892 
     69 H69        29.8842  -45.3865  -53.3535 H         1 UNK         0.0892 
     70 H70        32.7624  -46.7722  -52.7147 H         1 UNK         0.3107 
     71 H71        33.4785  -45.2741  -50.2780 H         1 UNK         0.0773 
     72 H72        35.5736  -44.3922  -51.4658 H         1 UNK         0.0680 
     73 H73        34.8384  -44.8350  -52.9941 H         1 UNK         0.0680 
     74 H74        35.1200  -42.5883  -53.9346 H         1 UNK         0.0650 
     75 H75        34.1080  -41.2127  -53.5940 H         1 UNK         0.0650 
     76 H76        34.3624  -44.2206  -55.5681 H         1 UNK         0.1397 
     77 H77        30.4871  -43.7553  -57.3437 H         1 UNK         0.1363 
     78 H78        31.5552  -41.4343  -53.9038 H         1 UNK         0.1355 
     79 H79        29.1236  -41.8100  -56.6589 H         1 UNK         0.0707 
     80 H80        29.5832  -40.8533  -55.2828 H         1 UNK         0.0707 
     81 H81        28.7392  -44.6441  -56.0412 H         1 UNK         0.1034 
     82 H82        27.5566  -44.9865  -54.8280 H         1 UNK         0.1034 
     83 H83        26.0749  -43.1880  -56.1530 H         1 UNK         0.0482 
     84 H84        26.2175  -41.7624  -57.8762 H         1 UNK         0.3460 
     85 H85        27.1795  -42.0382  -59.3054 H         1 UNK         0.3460 
     86 H86        26.3112  -46.0688  -56.6740 H         1 UNK         0.2989 
     87 H87        23.6132  -46.7881  -56.1201 H         1 UNK         0.0559 
     88 H88        22.4976  -45.9435  -58.8438 H         1 UNK         0.0848 
     89 H89        21.7650  -45.6507  -57.2752 H         1 UNK         0.0848 
     90 H90        21.9028  -47.2930  -57.8771 H         1 UNK         0.0848 
     91 H91        24.8011  -48.3001  -57.1571 H         1 UNK         0.3144 
     92 H92        25.3713  -49.3475  -60.1435 H         1 UNK         0.0727 
     93 H93        27.8796  -49.1853  -60.3398 H         1 UNK         0.0790 
     94 H94        27.8421  -47.6760  -59.4267 H         1 UNK         0.0790 
     95 H95        27.0650  -47.7774  -60.9978 H         1 UNK         0.0790 
     96 H96        26.9520  -49.2291  -57.6222 H         1 UNK         0.3215 
     97 H97        25.0907  -51.7668  -56.1029 H         1 UNK         0.0863 
     98 H98        27.2275  -53.0365  -55.8375 H         1 UNK         0.0808 
     99 H99        27.9031  -52.2165  -57.2443 H         1 UNK         0.0808 
    100 H100       26.5307  -53.2992  -57.4285 H         1 UNK         0.0808 
    101 H101       27.5971  -50.5199  -55.4385 H         1 UNK         0.3118 
    102 H102       26.2889  -47.4039  -54.3456 H         1 UNK         0.0546 
    103 H103       25.7157  -48.8216  -52.3647 H         1 UNK         0.0828 
    104 H104       27.2421  -47.9890  -52.1314 H         1 UNK         0.0828 
    105 H105       27.2250  -49.7048  -52.5434 H         1 UNK         0.0828 
    106 H106       28.8590  -48.6122  -54.0514 H         1 UNK         0.3005 
    107 H107       30.0150  -48.6404  -57.2476 H         1 UNK         0.1257 
    108 H108       30.6210  -46.1219  -55.6256 H         1 UNK         0.0775 
    109 H109       30.1743  -46.1955  -57.3186 H         1 UNK         0.0775 
    110 H110       33.8394  -45.1056  -57.8729 H         1 UNK         0.0840 
    111 H111       32.2171  -45.0106  -58.5068 H         1 UNK         0.0840 
    112 H112       31.5641  -48.5048  -54.8961 H         1 UNK         0.2987 
    113 H113       31.2555  -50.4483  -53.0804 H         1 UNK         0.0785 
    114 H114       30.1997  -52.6199  -53.6433 H         1 UNK         0.0798 
    115 H115       31.8700  -52.8590  -53.1652 H         1 UNK         0.0798 
    116 H116       31.4203  -52.9291  -54.8700 H         1 UNK         0.0798 
    117 H117       33.3984  -51.4507  -54.7402 H         1 UNK         0.3079 
    118 H118       35.4348  -50.5894  -54.4316 H         1 UNK         0.0794 
    119 H119       35.0333  -47.9087  -55.8785 H         1 UNK         0.0786 
    120 H120       34.7673  -49.4899  -56.6000 H         1 UNK         0.0786 
    121 H121       36.3839  -49.0173  -56.0999 H         1 UNK         0.0786 
    122 H122       35.7364  -47.7715  -53.5455 H         1 UNK         0.3032 
    123 H123       36.5630  -48.6533  -50.2513 H         1 UNK         0.1094 
    124 H124       38.3537  -47.3613  -52.3869 H         1 UNK         0.0794 
    125 H125       38.4965  -47.1354  -50.6429 H         1 UNK         0.0794 
    126 H126       38.8033  -48.7106  -51.3539 H         1 UNK         0.0794 
    127 H127       36.2895  -46.1682  -51.6993 H         1 UNK         0.3016 
@<TRIPOS>BOND
     1    1    2 1    
     2    1   67 1    
     3    1   68 1    
     4    1   69 1    
     5    2    3 2    
     6    2    4 am   BACKBONE|DICT|INTERRES
     7    4    5 1    
     8    4   70 1    
     9    5    6 1    
    10    5   65 1    
    11    5   71 1    
    12    6    7 1    
    13    6   72 1    
    14    6   73 1    
    15    7    8 1    
    16    8    9 1    
    17    8   74 1    
    18    8   75 1    
    19    9   10 ar   
    20    9   14 ar   
    21   10   11 ar   
    22   10   76 1    
    23   11   12 ar   
    24   11   48 1    
    25   12   13 ar   
    26   12   77 1    
    27   13   14 ar   
    28   13   15 1    
    29   14   78 1    
    30   15   16 1    
    31   15   79 1    
    32   15   80 1    
    33   16   17 1    
    34   17   18 1    
    35   17   81 1    
    36   17   82 1    
    37   18   19 1    
    38   18   22 1    
    39   18   83 1    
    40   19   20 am   BACKBONE|DICT|INTERRES
    41   19   21 2    
    42   20   84 1    
    43   20   85 1    
    44   22   23 am   BACKBONE|DICT|INTERRES
    45   22   86 1    
    46   23   24 2    
    47   23   25 1    
    48   25   26 1    
    49   25   27 1    
    50   25   87 1    
    51   26   88 1    
    52   26   89 1    
    53   26   90 1    
    54   27   28 am   BACKBONE|DICT|INTERRES
    55   27   91 1    
    56   28   29 2    
    57   28   30 1    
    58   30   31 1    
    59   30   32 1    
    60   30   92 1    
    61   31   93 1    
    62   31   94 1    
    63   31   95 1    
    64   32   33 am   BACKBONE|DICT|INTERRES
    65   32   96 1    
    66   33   34 2    
    67   33   35 1    
    68   35   36 1    
    69   35   37 1    
    70   35   97 1    
    71   36   98 1    
    72   36   99 1    
    73   36  100 1    
    74   37   38 am   BACKBONE|DICT|INTERRES
    75   37  101 1    
    76   38   39 2    
    77   38   40 1    
    78   40   41 1    
    79   40   42 1    
    80   40  102 1    
    81   41  103 1    
    82   41  104 1    
    83   41  105 1    
    84   42   43 am   BACKBONE|DICT|INTERRES
    85   42  106 1    
    86   43   44 2    
    87   43   45 1    
    88   45   46 1    
    89   45   49 1    
    90   45  107 1    
    91   46   47 1    
    92   46  108 1    
    93   46  109 1    
    94   47   48 1    
    95   48  110 1    
    96   48  111 1    
    97   49   50 am   BACKBONE|DICT|INTERRES
    98   49  112 1    
    99   50   51 2    
   100   50   52 1    
   101   52   53 1    
   102   52   54 1    
   103   52  113 1    
   104   53  114 1    
   105   53  115 1    
   106   53  116 1    
   107   54   55 am   BACKBONE|DICT|INTERRES
   108   54  117 1    
   109   55   56 2    
   110   55   57 1    
   111   57   58 1    
   112   57   59 1    
   113   57  118 1    
   114   58  119 1    
   115   58  120 1    
   116   58  121 1    
   117   59   60 am   BACKBONE|DICT|INTERRES
   118   59  122 1    
   119   60   61 2    
   120   60   62 1    
   121   62   63 1    
   122   62   64 1    
   123   62  123 1    
   124   63  124 1    
   125   63  125 1    
   126   63  126 1    
   127   64   65 am   BACKBONE|DICT|INTERRES
   128   64  127 1    
   129   65   66 2    
@<TRIPOS>SUBSTRUCTURE
     1 UNK         1 GROUP             0       ****    0 ROOT    
