@<TRIPOS>MOLECULE
3R134
127   129    1
SMALL
USER_CHARGES


@<TRIPOS>ATOM
      1 CA         32.2769  -49.4831  -57.3701 C.3       0 UNK        -0.1968 
      2 C          33.2438  -48.5253  -56.6920 C.2       0 UNK         0.4852 
      3 O          34.4290  -48.5208  -57.0264 O.2       0 UNK        -0.5359 
      4 N          32.7517  -47.7435  -55.7197 N.am      1 UNK        -0.4300 
      5 CA         33.4803  -46.8010  -54.8602 C.3       1 UNK         0.0863 
      6 C6         34.2601  -45.7081  -55.6416 C.3       11 UNK        -0.0953 
      7 S7         34.9237  -44.3937  -54.5629 S.3       11 UNK        -0.2369 
      8 C8         34.1740  -42.8915  -55.2672 C.3       11 UNK         0.0226 
      9 C9         32.6864  -42.7507  -54.9645 C.ar      11 UNK        -0.0699 
     10 C10        32.2125  -42.8340  -53.6506 C.ar      11 UNK        -0.0804 
     11 C11        30.8584  -42.6305  -53.3680 C.ar      11 UNK        -0.0871 
     12 C12        29.9773  -42.3224  -54.4080 C.ar      11 UNK        -0.1008 
     13 C13        30.4366  -42.2366  -55.7253 C.ar      11 UNK        -0.0735 
     14 C14        31.7894  -42.4633  -55.9979 C.ar      11 UNK        -0.0945 
     15 C15        29.4842  -41.8598  -56.8509 C.3       11 UNK         0.0169 
     16 S16        28.4463  -43.2647  -57.3522 S.3       11 UNK        -0.2669 
     17 C17        27.0576  -43.1568  -56.1643 C.3       11 UNK        -0.0850 
     18 CA         25.6834  -43.5317  -56.7800 C.3       10 UNK         0.0855 
     19 C          25.1800  -42.4513  -57.7829 C.2       10 UNK         0.5543 
     20 N          24.6322  -41.3539  -57.2774 N.am      10 UNK        -0.7343 
     21 O          25.3059  -42.5771  -58.9998 O.2       10 UNK        -0.5027 
     22 N          25.7139  -44.8997  -57.3135 N.am      10 UNK        -0.4495 
     23 C          24.6839  -45.5748  -57.8367 C.2       10 UNK         0.4903 
     24 O          23.5299  -45.1444  -57.8618 O.2       10 UNK        -0.4860 
     25 CA         24.9571  -46.9908  -58.3826 C.3       9 UNK         0.0227 
     26 CB         24.4750  -47.1500  -59.8398 C.3       9 UNK        -0.1964 
     27 N          26.3392  -47.4642  -58.2073 N.am      9 UNK        -0.4231 
     28 C          27.4545  -47.0790  -58.8518 C.2       9 UNK         0.5014 
     29 O          27.4642  -46.2504  -59.7616 O.2       9 UNK        -0.5270 
     30 CA         28.7943  -47.7001  -58.4004 C.3       8 UNK         0.0284 
     31 CB         29.8088  -46.6109  -58.0060 C.3       8 UNK        -0.1977 
     32 N          28.6353  -48.6286  -57.2781 N.am      8 UNK        -0.4342 
     33 C          28.3722  -49.9382  -57.3973 C.2       8 UNK         0.5039 
     34 O          28.3518  -50.5361  -58.4730 O.2       8 UNK        -0.5547 
     35 CA         28.0336  -50.7066  -56.1059 C.3       7 UNK         0.0281 
     36 CB         29.2472  -51.5031  -55.5979 C.3       7 UNK        -0.1963 
     37 N          27.5213  -49.8388  -55.0388 N.am      7 UNK        -0.4444 
     38 C          26.3216  -49.2387  -55.0674 C.2       7 UNK         0.5104 
     39 O          25.5148  -49.3812  -55.9849 O.2       7 UNK        -0.5100 
     40 CA         25.9802  -48.2785  -53.9145 C.3       6 UNK         0.0396 
     41 CB         25.2187  -49.0230  -52.8072 C.3       6 UNK        -0.1801 
     42 N          27.1511  -47.6134  -53.3366 N.am      6 UNK        -0.4747 
     43 C          27.9515  -46.7532  -53.9861 C.2       6 UNK         0.5012 
     44 O          27.7883  -46.4262  -55.1609 O.2       6 UNK        -0.5003 
     45 CA         29.1814  -46.2456  -53.2040 C.3       5 UNK         0.0782 
     46 C46        28.7968  -45.0556  -52.2910 C.3       11 UNK        -0.0868 
     47 S47        30.2216  -44.4196  -51.3416 S.3       11 UNK        -0.2515 
     48 C48        30.3578  -42.7037  -51.9333 C.3       11 UNK         0.0199 
     49 N          29.8073  -47.3430  -52.4520 N.am      5 UNK        -0.4607 
     50 C          30.3778  -48.4122  -53.0152 C.2       4 UNK         0.5031 
     51 O          30.5005  -48.5563  -54.2358 O.2       4 UNK        -0.5119 
     52 CA         30.8225  -49.5327  -52.0712 C.3       4 UNK         0.0263 
     53 CB         29.6058  -50.3933  -51.6698 C.3       4 UNK        -0.1967 
     54 N          31.8235  -50.3304  -52.7716 N.am      4 UNK        -0.4237 
     55 C          32.5483  -51.3405  -52.2764 C.2       3 UNK         0.4908 
     56 O          32.4453  -51.7758  -51.1293 O.2       3 UNK        -0.5102 
     57 CA         33.5952  -51.9415  -53.2279 C.3       3 UNK         0.0241 
     58 CB         32.9326  -52.6216  -54.4398 C.3       3 UNK        -0.1971 
     59 N          34.5307  -50.9128  -53.6847 N.am      3 UNK        -0.4139 
     60 C          35.4928  -50.3686  -52.9249 C.2       2 UNK         0.5016 
     61 O          35.7930  -50.7670  -51.7990 O.2       2 UNK        -0.5319 
     62 CA         36.2292  -49.1552  -53.5169 C.3       2 UNK         0.0286 
     63 CB         37.4233  -49.6055  -54.3733 C.3       2 UNK        -0.1963 
     64 N          35.3486  -48.3015  -54.3189 N.am      2 UNK        -0.4790 
     65 C          34.3470  -47.5559  -53.8313 C.2       1 UNK         0.5024 
     66 O          34.0723  -47.4795  -52.6336 O.2       1 UNK        -0.4888 
     67 H67        32.1282  -49.1942  -58.4102 H         1 UNK         0.0892 
     68 H68        32.6731  -50.4979  -57.3516 H         1 UNK         0.0892 
     69 H69        31.3071  -49.4903  -56.8771 H         1 UNK         0.0892 
     70 H70        31.7838  -47.8824  -55.4380 H         1 UNK         0.3107 
     71 H71        32.7037  -46.2876  -54.2894 H         1 UNK         0.0773 
     72 H72        35.0948  -46.1360  -56.1981 H         1 UNK         0.0680 
     73 H73        33.6028  -45.2591  -56.3876 H         1 UNK         0.0680 
     74 H74        34.3611  -42.8745  -56.3421 H         1 UNK         0.0650 
     75 H75        34.6903  -42.0240  -54.8543 H         1 UNK         0.0650 
     76 H76        32.9006  -43.0476  -52.8440 H         1 UNK         0.1397 
     77 H77        28.9348  -42.1380  -54.1914 H         1 UNK         0.1363 
     78 H78        32.1495  -42.3849  -57.0146 H         1 UNK         0.1355 
     79 H79        28.8647  -41.0120  -56.5554 H         1 UNK         0.0707 
     80 H80        30.0488  -41.5255  -57.7227 H         1 UNK         0.0707 
     81 H81        27.2782  -43.8221  -55.3292 H         1 UNK         0.1034 
     82 H82        27.0106  -42.1561  -55.7320 H         1 UNK         0.1034 
     83 H83        24.9595  -43.5552  -55.9632 H         1 UNK         0.0482 
     84 H84        24.5222  -41.2331  -56.2826 H         1 UNK         0.3460 
     85 H85        24.3097  -40.6350  -57.9062 H         1 UNK         0.3460 
     86 H86        26.6282  -45.3272  -57.3425 H         1 UNK         0.2989 
     87 H87        24.3488  -47.6592  -57.7720 H         1 UNK         0.0559 
     88 H88        24.9688  -46.4480  -60.5121 H         1 UNK         0.0848 
     89 H89        23.4030  -46.9648  -59.9168 H         1 UNK         0.0848 
     90 H90        24.6558  -48.1584  -60.2116 H         1 UNK         0.0848 
     91 H91        26.4412  -48.1554  -57.4736 H         1 UNK         0.3144 
     92 H92        29.1998  -48.2360  -59.2611 H         1 UNK         0.0727 
     93 H93        29.4956  -46.0644  -57.1171 H         1 UNK         0.0790 
     94 H94        29.9363  -45.8802  -58.8059 H         1 UNK         0.0790 
     95 H95        30.7909  -47.0341  -57.8060 H         1 UNK         0.0790 
     96 H96        28.6152  -48.2107  -56.3557 H         1 UNK         0.3215 
     97 H97        27.2486  -51.4230  -56.3592 H         1 UNK         0.0863 
     98 H98        28.9822  -52.1307  -54.7471 H         1 UNK         0.0808 
     99 H99        30.0655  -50.8540  -55.2932 H         1 UNK         0.0808 
    100 H100       29.6319  -52.1640  -56.3759 H         1 UNK         0.0808 
    101 H101       28.1440  -49.6378  -54.2708 H         1 UNK         0.3118 
    102 H102       25.3251  -47.5034  -54.3183 H         1 UNK         0.0546 
    103 H103       24.3265  -49.5081  -53.2061 H         1 UNK         0.0828 
    104 H104       24.8892  -48.3408  -52.0234 H         1 UNK         0.0828 
    105 H105       25.8308  -49.7981  -52.3442 H         1 UNK         0.0828 
    106 H106       27.3661  -47.8305  -52.3742 H         1 UNK         0.3005 
    107 H107       29.9046  -45.8875  -53.9413 H         1 UNK         0.1257 
    108 H108       28.0275  -45.3506  -51.5748 H         1 UNK         0.0775 
    109 H109       28.3620  -44.2480  -52.8822 H         1 UNK         0.0775 
    110 H110       29.3936  -42.2037  -51.8278 H         1 UNK         0.0840 
    111 H111       31.0489  -42.1636  -51.2843 H         1 UNK         0.0840 
    112 H112       29.7677  -47.2720  -51.4453 H         1 UNK         0.2987 
    113 H113       31.2824  -49.0902  -51.1854 H         1 UNK         0.0785 
    114 H114       28.8212  -49.7861  -51.2168 H         1 UNK         0.0798 
    115 H115       29.8747  -51.1527  -50.9362 H         1 UNK         0.0798 
    116 H116       29.1707  -50.9042  -52.5289 H         1 UNK         0.0798 
    117 H117       31.9713  -50.0306  -53.7254 H         1 UNK         0.3079 
    118 H118       34.1537  -52.7017  -52.6770 H         1 UNK         0.0794 
    119 H119       32.4047  -51.9116  -55.0766 H         1 UNK         0.0786 
    120 H120       32.2083  -53.3711  -54.1175 H         1 UNK         0.0786 
    121 H121       33.6722  -53.1335  -55.0558 H         1 UNK         0.0786 
    122 H122       34.3842  -50.5270  -54.6051 H         1 UNK         0.3032 
    123 H123       36.6080  -48.5616  -52.6815 H         1 UNK         0.1094 
    124 H124       37.1046  -50.1827  -55.2423 H         1 UNK         0.0794 
    125 H125       37.9983  -48.7510  -54.7309 H         1 UNK         0.0794 
    126 H126       38.1032  -50.2330  -53.7953 H         1 UNK         0.0794 
    127 H127       35.4470  -48.3403  -55.3299 H         1 UNK         0.3016 
@<TRIPOS>BOND
     1    1    2 1    
     2    1   67 1    
     3    1   68 1    
     4    1   69 1    
     5    2    3 2    
     6    2    4 am   BACKBONE|DICT|INTERRES
     7    4    5 1    
     8    4   70 1    
     9    5    6 1    
    10    5   65 1    
    11    5   71 1    
    12    6    7 1    
    13    6   72 1    
    14    6   73 1    
    15    7    8 1    
    16    8    9 1    
    17    8   74 1    
    18    8   75 1    
    19    9   10 ar   
    20    9   14 ar   
    21   10   11 ar   
    22   10   76 1    
    23   11   12 ar   
    24   11   48 1    
    25   12   13 ar   
    26   12   77 1    
    27   13   14 ar   
    28   13   15 1    
    29   14   78 1    
    30   15   16 1    
    31   15   79 1    
    32   15   80 1    
    33   16   17 1    
    34   17   18 1    
    35   17   81 1    
    36   17   82 1    
    37   18   19 1    
    38   18   22 1    
    39   18   83 1    
    40   19   20 am   BACKBONE|DICT|INTERRES
    41   19   21 2    
    42   20   84 1    
    43   20   85 1    
    44   22   23 am   BACKBONE|DICT|INTERRES
    45   22   86 1    
    46   23   24 2    
    47   23   25 1    
    48   25   26 1    
    49   25   27 1    
    50   25   87 1    
    51   26   88 1    
    52   26   89 1    
    53   26   90 1    
    54   27   28 am   BACKBONE|DICT|INTERRES
    55   27   91 1    
    56   28   29 2    
    57   28   30 1    
    58   30   31 1    
    59   30   32 1    
    60   30   92 1    
    61   31   93 1    
    62   31   94 1    
    63   31   95 1    
    64   32   33 am   BACKBONE|DICT|INTERRES
    65   32   96 1    
    66   33   34 2    
    67   33   35 1    
    68   35   36 1    
    69   35   37 1    
    70   35   97 1    
    71   36   98 1    
    72   36   99 1    
    73   36  100 1    
    74   37   38 am   BACKBONE|DICT|INTERRES
    75   37  101 1    
    76   38   39 2    
    77   38   40 1    
    78   40   41 1    
    79   40   42 1    
    80   40  102 1    
    81   41  103 1    
    82   41  104 1    
    83   41  105 1    
    84   42   43 am   BACKBONE|DICT|INTERRES
    85   42  106 1    
    86   43   44 2    
    87   43   45 1    
    88   45   46 1    
    89   45   49 1    
    90   45  107 1    
    91   46   47 1    
    92   46  108 1    
    93   46  109 1    
    94   47   48 1    
    95   48  110 1    
    96   48  111 1    
    97   49   50 am   BACKBONE|DICT|INTERRES
    98   49  112 1    
    99   50   51 2    
   100   50   52 1    
   101   52   53 1    
   102   52   54 1    
   103   52  113 1    
   104   53  114 1    
   105   53  115 1    
   106   53  116 1    
   107   54   55 am   BACKBONE|DICT|INTERRES
   108   54  117 1    
   109   55   56 2    
   110   55   57 1    
   111   57   58 1    
   112   57   59 1    
   113   57  118 1    
   114   58  119 1    
   115   58  120 1    
   116   58  121 1    
   117   59   60 am   BACKBONE|DICT|INTERRES
   118   59  122 1    
   119   60   61 2    
   120   60   62 1    
   121   62   63 1    
   122   62   64 1    
   123   62  123 1    
   124   63  124 1    
   125   63  125 1    
   126   63  126 1    
   127   64   65 am   BACKBONE|DICT|INTERRES
   128   64  127 1    
   129   65   66 2    
@<TRIPOS>SUBSTRUCTURE
     1 UNK         1 GROUP             0       ****    0 ROOT    
