@<TRIPOS>MOLECULE
3R134
127   129    1
SMALL
USER_CHARGES


@<TRIPOS>ATOM
      1 CA         38.9702  -46.7078  -51.5378 C.3       0 UNK        -0.1968 
      2 C          37.6752  -47.0984  -52.2339 C.2       0 UNK         0.4852 
      3 O          37.4140  -48.2885  -52.4204 O.2       0 UNK        -0.5359 
      4 N          36.8514  -46.1103  -52.6095 N.am      1 UNK        -0.4300 
      5 CA         35.5607  -46.2807  -53.2888 C.3       1 UNK         0.0863 
      6 C6         35.2091  -45.0200  -54.1268 C.3       11 UNK        -0.0953 
      7 S7         34.1685  -45.3994  -55.5757 S.3       11 UNK        -0.2369 
      8 C8         33.6983  -43.7244  -56.1186 C.3       11 UNK         0.0226 
      9 C9         32.2458  -43.3879  -55.8009 C.ar      11 UNK        -0.0699 
     10 C10        31.7527  -43.5075  -54.4969 C.ar      11 UNK        -0.0804 
     11 C11        30.4230  -43.1885  -54.2084 C.ar      11 UNK        -0.0871 
     12 C12        29.5859  -42.7331  -55.2298 C.ar      11 UNK        -0.1008 
     13 C13        30.0663  -42.6015  -56.5347 C.ar      11 UNK        -0.0735 
     14 C14        31.3959  -42.9315  -56.8152 C.ar      11 UNK        -0.0945 
     15 C15        29.1423  -42.1045  -57.6348 C.3       11 UNK         0.0169 
     16 S16        28.4246  -43.4997  -58.5495 S.3       11 UNK        -0.2669 
     17 C17        26.9010  -42.7500  -59.2202 C.3       11 UNK        -0.0850 
     18 CA         25.6568  -43.0514  -58.3416 C.3       10 UNK         0.0855 
     19 C          24.3952  -42.3188  -58.8832 C.2       10 UNK         0.5543 
     20 N          23.3310  -43.0151  -59.2637 N.am      10 UNK        -0.7343 
     21 O          24.3816  -41.0923  -58.9527 O.2       10 UNK        -0.5027 
     22 N          25.4842  -44.4977  -58.1321 N.am      10 UNK        -0.4495 
     23 C          24.8560  -45.0722  -57.1020 C.2       10 UNK         0.4903 
     24 O          24.2876  -44.4386  -56.2123 O.2       10 UNK        -0.4860 
     25 CA         24.8744  -46.6118  -57.0248 C.3       9 UNK         0.0227 
     26 CB         23.6062  -47.2189  -57.6556 C.3       9 UNK        -0.1964 
     27 N          26.0974  -47.2455  -57.5440 N.am      9 UNK        -0.4231 
     28 C          26.5411  -47.3219  -58.8083 C.2       9 UNK         0.5014 
     29 O          25.9562  -46.8225  -59.7704 O.2       9 UNK        -0.5270 
     30 CA         27.8788  -48.0405  -59.0486 C.3       8 UNK         0.0284 
     31 CB         29.0352  -47.0295  -59.0576 C.3       8 UNK        -0.1977 
     32 N          28.1574  -49.0967  -58.0720 N.am      8 UNK        -0.4342 
     33 C          27.5676  -50.3010  -58.0861 C.2       8 UNK         0.5039 
     34 O          26.7283  -50.6420  -58.9210 O.2       8 UNK        -0.5547 
     35 CA         27.9838  -51.3006  -56.9935 C.3       7 UNK         0.0281 
     36 CB         29.3539  -51.9188  -57.3130 C.3       7 UNK        -0.1963 
     37 N          28.0055  -50.7066  -55.6561 N.am      7 UNK        -0.4444 
     38 C          26.9157  -50.2892  -54.9959 C.2       7 UNK         0.5104 
     39 O          25.7669  -50.3925  -55.4262 O.2       7 UNK        -0.5100 
     40 CA         27.1466  -49.6255  -53.6282 C.3       6 UNK         0.0396 
     41 CB         27.2584  -50.6822  -52.5179 C.3       6 UNK        -0.1801 
     42 N          28.3291  -48.7627  -53.6086 N.am      6 UNK        -0.4747 
     43 C          28.4582  -47.6336  -54.3217 C.2       6 UNK         0.5012 
     44 O          27.5917  -47.1993  -55.0804 O.2       6 UNK        -0.5003 
     45 CA         29.8093  -46.9022  -54.2007 C.3       5 UNK         0.0782 
     46 C46        29.9346  -46.1613  -52.8447 C.3       11 UNK        -0.0868 
     47 S47        28.7729  -44.7670  -52.6502 S.3       11 UNK        -0.2515 
     48 C48        29.8841  -43.3340  -52.7946 C.3       11 UNK         0.0199 
     49 N          30.9224  -47.8368  -54.4077 N.am      5 UNK        -0.4607 
     50 C          31.1531  -48.5060  -55.5494 C.2       4 UNK         0.5031 
     51 O          30.4855  -48.3571  -56.5706 O.2       4 UNK        -0.5119 
     52 CA         32.2673  -49.5699  -55.5535 C.3       4 UNK         0.0263 
     53 CB         33.5988  -48.9751  -56.0307 C.3       4 UNK        -0.1967 
     54 N          32.4641  -50.2189  -54.2589 N.am      4 UNK        -0.4237 
     55 C          31.5391  -50.9363  -53.6063 C.2       3 UNK         0.4908 
     56 O          30.4307  -51.2069  -54.0692 O.2       3 UNK        -0.5102 
     57 CA         31.8930  -51.3758  -52.1735 C.3       3 UNK         0.0241 
     58 CB         32.4355  -52.8135  -52.1711 C.3       3 UNK        -0.1971 
     59 N          32.8534  -50.4872  -51.5019 N.am      3 UNK        -0.4139 
     60 C          32.6455  -49.1853  -51.2509 C.2       2 UNK         0.5016 
     61 O          31.6131  -48.5948  -51.5646 O.2       2 UNK        -0.5319 
     62 CA         33.7892  -48.4028  -50.5881 C.3       2 UNK         0.0286 
     63 CB         34.6256  -49.2533  -49.6120 C.3       2 UNK        -0.1963 
     64 N          34.6722  -47.8310  -51.6054 N.am      2 UNK        -0.4790 
     65 C          34.4571  -46.6955  -52.2843 C.2       1 UNK         0.5024 
     66 O          33.4748  -45.9756  -52.1060 O.2       1 UNK        -0.4888 
     67 H67        39.0727  -45.6269  -51.4422 H         1 UNK         0.0892 
     68 H68        39.0042  -47.1416  -50.5388 H         1 UNK         0.0892 
     69 H69        39.8252  -47.0808  -52.1009 H         1 UNK         0.0892 
     70 H70        37.1033  -45.1558  -52.3941 H         1 UNK         0.3107 
     71 H71        35.6773  -47.1141  -53.9848 H         1 UNK         0.0773 
     72 H72        34.7477  -44.2409  -53.5176 H         1 UNK         0.0680 
     73 H73        36.1222  -44.5745  -54.5255 H         1 UNK         0.0680 
     74 H74        33.8765  -43.6607  -57.1931 H         1 UNK         0.0650 
     75 H75        34.3484  -42.9788  -55.6592 H         1 UNK         0.0650 
     76 H76        32.4019  -43.8618  -53.7081 H         1 UNK         0.1397 
     77 H77        28.5552  -42.4908  -55.0083 H         1 UNK         0.1363 
     78 H78        31.7652  -42.8326  -57.8269 H         1 UNK         0.1355 
     79 H79        29.6858  -41.4574  -58.3249 H         1 UNK         0.0707 
     80 H80        28.3449  -41.4975  -57.2028 H         1 UNK         0.0707 
     81 H81        26.7504  -43.1359  -60.2302 H         1 UNK         0.1034 
     82 H82        27.0498  -41.6739  -59.3305 H         1 UNK         0.1034 
     83 H83        25.8469  -42.6096  -57.3614 H         1 UNK         0.0482 
     84 H84        22.5177  -42.5304  -59.6092 H         1 UNK         0.3460 
     85 H85        23.3367  -44.0207  -59.2064 H         1 UNK         0.3460 
     86 H86        25.8715  -45.1084  -58.8438 H         1 UNK         0.2989 
     87 H87        24.8584  -46.8631  -55.9631 H         1 UNK         0.0559 
     88 H88        23.5293  -46.9957  -58.7199 H         1 UNK         0.0848 
     89 H89        22.7086  -46.8245  -57.1776 H         1 UNK         0.0848 
     90 H90        23.5869  -48.3024  -57.5374 H         1 UNK         0.0848 
     91 H91        26.7184  -47.5840  -56.8141 H         1 UNK         0.3144 
     92 H92        27.8300  -48.4975  -60.0394 H         1 UNK         0.0727 
     93 H93        29.9873  -47.5150  -59.2720 H         1 UNK         0.0790 
     94 H94        29.1294  -46.5167  -58.0991 H         1 UNK         0.0790 
     95 H95        28.8807  -46.2677  -59.8226 H         1 UNK         0.0790 
     96 H96        28.8813  -48.8982  -57.3831 H         1 UNK         0.3215 
     97 H97        27.2466  -52.1067  -56.9831 H         1 UNK         0.0863 
     98 H98        29.6565  -52.6361  -56.5497 H         1 UNK         0.0808 
     99 H99        30.1310  -51.1591  -57.3880 H         1 UNK         0.0808 
    100 H100       29.3270  -52.4492  -58.2657 H         1 UNK         0.0808 
    101 H101       28.9047  -50.6504  -55.1855 H         1 UNK         0.3118 
    102 H102       26.2775  -49.0001  -53.4132 H         1 UNK         0.0546 
    103 H103       26.3707  -51.3156  -52.4940 H         1 UNK         0.0828 
    104 H104       27.3505  -50.2185  -51.5358 H         1 UNK         0.0828 
    105 H105       28.1192  -51.3358  -52.6628 H         1 UNK         0.0828 
    106 H106       29.1112  -49.0687  -53.0463 H         1 UNK         0.3005 
    107 H107       29.8564  -46.1608  -55.0026 H         1 UNK         0.1257 
    108 H108       30.9513  -45.7890  -52.7227 H         1 UNK         0.0775 
    109 H109       29.7728  -46.8448  -52.0102 H         1 UNK         0.0775 
    110 H110       29.3344  -42.4315  -52.5235 H         1 UNK         0.0840 
    111 H111       30.6959  -43.4251  -52.0708 H         1 UNK         0.0840 
    112 H112       31.4709  -48.0544  -53.5835 H         1 UNK         0.2987 
    113 H113       31.9745  -50.3432  -56.2649 H         1 UNK         0.0785 
    114 H114       34.0133  -48.2873  -55.2958 H         1 UNK         0.0798 
    115 H115       33.4727  -48.4235  -56.9637 H         1 UNK         0.0798 
    116 H116       34.3385  -49.7548  -56.2132 H         1 UNK         0.0798 
    117 H117       33.3479  -50.0591  -53.7992 H         1 UNK         0.3079 
    118 H118       30.9672  -51.3575  -51.5946 H         1 UNK         0.0794 
    119 H119       33.3785  -52.8916  -52.7138 H         1 UNK         0.0786 
    120 H120       31.7293  -53.4972  -52.6447 H         1 UNK         0.0786 
    121 H121       32.6002  -53.1744  -51.1556 H         1 UNK         0.0786 
    122 H122       33.7294  -50.8984  -51.2132 H         1 UNK         0.3032 
    123 H123       33.3303  -47.5923  -50.0167 H         1 UNK         0.1094 
    124 H124       35.3208  -48.6276  -49.0517 H         1 UNK         0.0794 
    125 H125       33.9891  -49.7549  -48.8813 H         1 UNK         0.0794 
    126 H126       35.2145  -50.0167  -50.1217 H         1 UNK         0.0794 
    127 H127       35.5390  -48.3249  -51.8008 H         1 UNK         0.3016 
@<TRIPOS>BOND
     1    1    2 1    
     2    1   67 1    
     3    1   68 1    
     4    1   69 1    
     5    2    3 2    
     6    2    4 am   BACKBONE|DICT|INTERRES
     7    4    5 1    
     8    4   70 1    
     9    5    6 1    
    10    5   65 1    
    11    5   71 1    
    12    6    7 1    
    13    6   72 1    
    14    6   73 1    
    15    7    8 1    
    16    8    9 1    
    17    8   74 1    
    18    8   75 1    
    19    9   10 ar   
    20    9   14 ar   
    21   10   11 ar   
    22   10   76 1    
    23   11   12 ar   
    24   11   48 1    
    25   12   13 ar   
    26   12   77 1    
    27   13   14 ar   
    28   13   15 1    
    29   14   78 1    
    30   15   16 1    
    31   15   79 1    
    32   15   80 1    
    33   16   17 1    
    34   17   18 1    
    35   17   81 1    
    36   17   82 1    
    37   18   19 1    
    38   18   22 1    
    39   18   83 1    
    40   19   20 am   BACKBONE|DICT|INTERRES
    41   19   21 2    
    42   20   84 1    
    43   20   85 1    
    44   22   23 am   BACKBONE|DICT|INTERRES
    45   22   86 1    
    46   23   24 2    
    47   23   25 1    
    48   25   26 1    
    49   25   27 1    
    50   25   87 1    
    51   26   88 1    
    52   26   89 1    
    53   26   90 1    
    54   27   28 am   BACKBONE|DICT|INTERRES
    55   27   91 1    
    56   28   29 2    
    57   28   30 1    
    58   30   31 1    
    59   30   32 1    
    60   30   92 1    
    61   31   93 1    
    62   31   94 1    
    63   31   95 1    
    64   32   33 am   BACKBONE|DICT|INTERRES
    65   32   96 1    
    66   33   34 2    
    67   33   35 1    
    68   35   36 1    
    69   35   37 1    
    70   35   97 1    
    71   36   98 1    
    72   36   99 1    
    73   36  100 1    
    74   37   38 am   BACKBONE|DICT|INTERRES
    75   37  101 1    
    76   38   39 2    
    77   38   40 1    
    78   40   41 1    
    79   40   42 1    
    80   40  102 1    
    81   41  103 1    
    82   41  104 1    
    83   41  105 1    
    84   42   43 am   BACKBONE|DICT|INTERRES
    85   42  106 1    
    86   43   44 2    
    87   43   45 1    
    88   45   46 1    
    89   45   49 1    
    90   45  107 1    
    91   46   47 1    
    92   46  108 1    
    93   46  109 1    
    94   47   48 1    
    95   48  110 1    
    96   48  111 1    
    97   49   50 am   BACKBONE|DICT|INTERRES
    98   49  112 1    
    99   50   51 2    
   100   50   52 1    
   101   52   53 1    
   102   52   54 1    
   103   52  113 1    
   104   53  114 1    
   105   53  115 1    
   106   53  116 1    
   107   54   55 am   BACKBONE|DICT|INTERRES
   108   54  117 1    
   109   55   56 2    
   110   55   57 1    
   111   57   58 1    
   112   57   59 1    
   113   57  118 1    
   114   58  119 1    
   115   58  120 1    
   116   58  121 1    
   117   59   60 am   BACKBONE|DICT|INTERRES
   118   59  122 1    
   119   60   61 2    
   120   60   62 1    
   121   62   63 1    
   122   62   64 1    
   123   62  123 1    
   124   63  124 1    
   125   63  125 1    
   126   63  126 1    
   127   64   65 am   BACKBONE|DICT|INTERRES
   128   64  127 1    
   129   65   66 2    
@<TRIPOS>SUBSTRUCTURE
     1 UNK         1 GROUP             0       ****    0 ROOT    
