@<TRIPOS>MOLECULE
3R134
127   129    1
SMALL
USER_CHARGES


@<TRIPOS>ATOM
      1 CA         29.9261  -47.4378  -49.0182 C.3       0 UNK        -0.1968 
      2 C          31.3370  -46.9193  -49.2563 C.2       0 UNK         0.4852 
      3 O          32.2707  -47.3654  -48.5886 O.2       0 UNK        -0.5359 
      4 N          31.4919  -45.9792  -50.1998 N.am      1 UNK        -0.4300 
      5 CA         32.7658  -45.3740  -50.6084 C.3       1 UNK         0.0863 
      6 C6         32.5246  -44.2029  -51.5927 C.3       11 UNK        -0.0953 
      7 S7         33.9473  -43.0759  -51.7355 S.3       11 UNK        -0.2369 
      8 C8         33.2008  -41.6970  -52.6688 C.3       11 UNK         0.0226 
      9 C9         32.6123  -42.1067  -54.0179 C.ar      11 UNK        -0.0699 
     10 C10        33.3188  -42.9417  -54.8907 C.ar      11 UNK        -0.0804 
     11 C11        32.7820  -43.2932  -56.1325 C.ar      11 UNK        -0.0871 
     12 C12        31.5417  -42.7772  -56.5169 C.ar      11 UNK        -0.1008 
     13 C13        30.8181  -41.9503  -55.6527 C.ar      11 UNK        -0.0735 
     14 C14        31.3580  -41.6226  -54.4043 C.ar      11 UNK        -0.0945 
     15 C15        29.4628  -41.3943  -56.0700 C.3       11 UNK         0.0169 
     16 S16        28.1625  -42.6707  -56.0367 S.3       11 UNK        -0.2669 
     17 C17        28.2998  -43.3935  -57.7105 C.3       11 UNK        -0.0850 
     18 CA         26.9336  -43.8872  -58.2582 C.3       10 UNK         0.0855 
     19 C          27.0204  -44.3006  -59.7579 C.2       10 UNK         0.5543 
     20 N          26.4766  -45.4378  -60.1779 N.am      10 UNK        -0.7343 
     21 O          27.5815  -43.5649  -60.5661 O.2       10 UNK        -0.5027 
     22 N          26.3654  -44.9390  -57.4027 N.am      10 UNK        -0.4495 
     23 C          25.0713  -45.0638  -57.0905 C.2       10 UNK         0.4903 
     24 O          24.2016  -44.2622  -57.4372 O.2       10 UNK        -0.4860 
     25 CA         24.6898  -46.3025  -56.2561 C.3       9 UNK         0.0227 
     26 CB         23.1668  -46.5485  -56.2054 C.3       9 UNK        -0.1964 
     27 N          25.3947  -47.5234  -56.6689 N.am      9 UNK        -0.4231 
     28 C          25.3793  -48.1050  -57.8798 C.2       9 UNK         0.5014 
     29 O          24.7690  -47.6397  -58.8436 O.2       9 UNK        -0.5270 
     30 CA         26.1909  -49.4035  -58.0809 C.3       8 UNK         0.0284 
     31 CB         27.1213  -49.2811  -59.3011 C.3       8 UNK        -0.1977 
     32 N          26.9938  -49.7887  -56.9180 N.am      8 UNK        -0.4342 
     33 C          26.5377  -50.3890  -55.8109 C.2       8 UNK         0.5039 
     34 O          25.3796  -50.7822  -55.6714 O.2       8 UNK        -0.5547 
     35 CA         27.5264  -50.5011  -54.6348 C.3       7 UNK         0.0281 
     36 CB         28.3794  -51.7755  -54.7429 C.3       7 UNK        -0.1963 
     37 N          28.3954  -49.3230  -54.5222 N.am      7 UNK        -0.4444 
     38 C          27.9607  -48.0858  -54.2389 C.2       7 UNK         0.5104 
     39 O          26.7911  -47.8198  -53.9655 O.2       7 UNK        -0.5100 
     40 CA         28.9842  -46.9439  -54.3365 C.3       6 UNK         0.0396 
     41 CB         29.6642  -46.7016  -52.9841 C.3       6 UNK        -0.1801 
     42 N          29.9836  -47.1813  -55.3849 N.am      6 UNK        -0.4747 
     43 C          29.7028  -47.0511  -56.6910 C.2       6 UNK         0.5012 
     44 O          28.5920  -46.7242  -57.1103 O.2       6 UNK        -0.5003 
     45 CA         30.8085  -47.3931  -57.7096 C.3       5 UNK         0.0782 
     46 C46        31.7538  -46.1989  -57.9965 C.3       11 UNK        -0.0868 
     47 S47        33.0759  -45.9655  -56.7578 S.3       11 UNK        -0.2515 
     48 C48        33.5478  -44.2320  -57.0509 C.3       11 UNK         0.0199 
     49 N          31.5351  -48.6252  -57.3904 N.am      5 UNK        -0.4607 
     50 C          30.9864  -49.8444  -57.3488 C.2       4 UNK         0.5031 
     51 O          29.7862  -50.0568  -57.5073 O.2       4 UNK        -0.5119 
     52 CA         31.9180  -51.0134  -57.0280 C.3       4 UNK         0.0263 
     53 CB         33.2947  -50.9119  -57.7162 C.3       4 UNK        -0.1967 
     54 N          32.0691  -51.0562  -55.5827 N.am      4 UNK        -0.4237 
     55 C          32.3331  -52.1296  -54.8365 C.2       3 UNK         0.4908 
     56 O          32.5231  -53.2553  -55.3004 O.2       3 UNK        -0.5102 
     57 CA         32.3965  -51.8891  -53.3121 C.3       3 UNK         0.0241 
     58 CB         32.8591  -53.1359  -52.5347 C.3       3 UNK        -0.1971 
     59 N          33.2478  -50.7516  -52.9376 N.am      3 UNK        -0.4139 
     60 C          32.9432  -49.4571  -53.0967 C.2       2 UNK         0.5016 
     61 O          31.9104  -49.0549  -53.6448 O.2       2 UNK        -0.5319 
     62 CA         33.9761  -48.4393  -52.6110 C.3       2 UNK         0.0286 
     63 CB         34.8747  -47.9786  -53.7724 C.3       2 UNK        -0.1963 
     64 N          33.2523  -47.3076  -52.0435 N.am      2 UNK        -0.4790 
     65 C          33.7552  -46.4137  -51.1834 C.2       1 UNK         0.5024 
     66 O          34.9308  -46.4087  -50.8141 O.2       1 UNK        -0.4888 
     67 H67        29.1886  -46.9162  -49.6278 H         1 UNK         0.0892 
     68 H68        29.8727  -48.4998  -49.2562 H         1 UNK         0.0892 
     69 H69        29.6507  -47.3088  -47.9718 H         1 UNK         0.0892 
     70 H70        30.6740  -45.6306  -50.6766 H         1 UNK         0.3107 
     71 H71        33.2168  -44.9672  -49.7004 H         1 UNK         0.0773 
     72 H72        31.6749  -43.6052  -51.2584 H         1 UNK         0.0680 
     73 H73        32.2653  -44.5702  -52.5870 H         1 UNK         0.0680 
     74 H74        33.9648  -40.9376  -52.8388 H         1 UNK         0.0650 
     75 H75        32.4382  -41.2323  -52.0419 H         1 UNK         0.0650 
     76 H76        34.2858  -43.3277  -54.5984 H         1 UNK         0.1397 
     77 H77        31.1341  -43.0259  -57.4856 H         1 UNK         0.1363 
     78 H78        30.8045  -40.9769  -53.7362 H         1 UNK         0.1355 
     79 H79        29.1646  -40.5899  -55.3960 H         1 UNK         0.0707 
     80 H80        29.5329  -40.9406  -57.0594 H         1 UNK         0.0707 
     81 H81        28.7204  -42.6425  -58.3811 H         1 UNK         0.1034 
     82 H82        29.0197  -44.2103  -57.6822 H         1 UNK         0.1034 
     83 H83        26.2622  -43.0268  -58.2448 H         1 UNK         0.0482 
     84 H84        25.9680  -46.0407  -59.5431 H         1 UNK         0.3460 
     85 H85        26.5392  -45.6787  -61.1539 H         1 UNK         0.3460 
     86 H86        27.0208  -45.6653  -57.1251 H         1 UNK         0.2989 
     87 H87        25.0212  -46.0912  -55.2387 H         1 UNK         0.0559 
     88 H88        22.7519  -46.7226  -57.1988 H         1 UNK         0.0848 
     89 H89        22.6449  -45.6899  -55.7810 H         1 UNK         0.0848 
     90 H90        22.9250  -47.4113  -55.5848 H         1 UNK         0.0848 
     91 H91        25.9488  -47.9586  -55.9410 H         1 UNK         0.3144 
     92 H92        25.4722  -50.2004  -58.2819 H         1 UNK         0.0727 
     93 H93        27.8407  -48.4709  -59.1771 H         1 UNK         0.0790 
     94 H94        26.5557  -49.0785  -60.2115 H         1 UNK         0.0790 
     95 H95        27.6803  -50.2021  -59.4684 H         1 UNK         0.0790 
     96 H96        27.9891  -49.5884  -56.9786 H         1 UNK         0.3215 
     97 H97        26.9369  -50.5662  -53.7175 H         1 UNK         0.0863 
     98 H98        29.0259  -51.8946  -53.8738 H         1 UNK         0.0808 
     99 H99        29.0078  -51.7746  -55.6333 H         1 UNK         0.0808 
    100 H100       27.7457  -52.6617  -54.7961 H         1 UNK         0.0808 
    101 H101       29.3739  -49.4428  -54.7389 H         1 UNK         0.3118 
    102 H102       28.4394  -46.0316  -54.5921 H         1 UNK         0.0546 
    103 H103       28.9353  -46.3531  -52.2515 H         1 UNK         0.0828 
    104 H104       30.4348  -45.9374  -53.0681 H         1 UNK         0.0828 
    105 H105       30.1131  -47.6090  -52.5821 H         1 UNK         0.0828 
    106 H106       30.9062  -47.4821  -55.0964 H         1 UNK         0.3005 
    107 H107       30.2767  -47.5933  -58.6432 H         1 UNK         0.1257 
    108 H108       31.1843  -45.2762  -58.1104 H         1 UNK         0.0775 
    109 H109       32.2431  -46.3565  -58.9589 H         1 UNK         0.0775 
    110 H110       34.6198  -44.1282  -56.8761 H         1 UNK         0.0840 
    111 H111       33.3870  -43.9658  -58.0968 H         1 UNK         0.0840 
    112 H112       32.5245  -48.5192  -57.2192 H         1 UNK         0.2987 
    113 H113       31.4226  -51.9258  -57.3674 H         1 UNK         0.0785 
    114 H114       33.1859  -50.7634  -58.7914 H         1 UNK         0.0798 
    115 H115       33.8680  -51.8284  -57.5753 H         1 UNK         0.0798 
    116 H116       33.8941  -50.0891  -57.3252 H         1 UNK         0.0798 
    117 H117       31.9222  -50.1800  -55.0843 H         1 UNK         0.3079 
    118 H118       31.3774  -51.6636  -52.9910 H         1 UNK         0.0794 
    119 H119       33.8730  -53.4295  -52.8096 H         1 UNK         0.0786 
    120 H120       32.2069  -53.9874  -52.7343 H         1 UNK         0.0786 
    121 H121       32.8386  -52.9636  -51.4584 H         1 UNK         0.0786 
    122 H122       34.1397  -50.9882  -52.5266 H         1 UNK         0.3032 
    123 H123       34.5889  -48.8967  -51.8307 H         1 UNK         0.1094 
    124 H124       34.2941  -47.4991  -54.5599 H         1 UNK         0.0794 
    125 H125       35.6302  -47.2682  -53.4367 H         1 UNK         0.0794 
    126 H126       35.4008  -48.8222  -54.2211 H         1 UNK         0.0794 
    127 H127       32.2715  -47.2785  -52.2869 H         1 UNK         0.3016 
@<TRIPOS>BOND
     1    1    2 1    
     2    1   67 1    
     3    1   68 1    
     4    1   69 1    
     5    2    3 2    
     6    2    4 am   BACKBONE|DICT|INTERRES
     7    4    5 1    
     8    4   70 1    
     9    5    6 1    
    10    5   65 1    
    11    5   71 1    
    12    6    7 1    
    13    6   72 1    
    14    6   73 1    
    15    7    8 1    
    16    8    9 1    
    17    8   74 1    
    18    8   75 1    
    19    9   10 ar   
    20    9   14 ar   
    21   10   11 ar   
    22   10   76 1    
    23   11   12 ar   
    24   11   48 1    
    25   12   13 ar   
    26   12   77 1    
    27   13   14 ar   
    28   13   15 1    
    29   14   78 1    
    30   15   16 1    
    31   15   79 1    
    32   15   80 1    
    33   16   17 1    
    34   17   18 1    
    35   17   81 1    
    36   17   82 1    
    37   18   19 1    
    38   18   22 1    
    39   18   83 1    
    40   19   20 am   BACKBONE|DICT|INTERRES
    41   19   21 2    
    42   20   84 1    
    43   20   85 1    
    44   22   23 am   BACKBONE|DICT|INTERRES
    45   22   86 1    
    46   23   24 2    
    47   23   25 1    
    48   25   26 1    
    49   25   27 1    
    50   25   87 1    
    51   26   88 1    
    52   26   89 1    
    53   26   90 1    
    54   27   28 am   BACKBONE|DICT|INTERRES
    55   27   91 1    
    56   28   29 2    
    57   28   30 1    
    58   30   31 1    
    59   30   32 1    
    60   30   92 1    
    61   31   93 1    
    62   31   94 1    
    63   31   95 1    
    64   32   33 am   BACKBONE|DICT|INTERRES
    65   32   96 1    
    66   33   34 2    
    67   33   35 1    
    68   35   36 1    
    69   35   37 1    
    70   35   97 1    
    71   36   98 1    
    72   36   99 1    
    73   36  100 1    
    74   37   38 am   BACKBONE|DICT|INTERRES
    75   37  101 1    
    76   38   39 2    
    77   38   40 1    
    78   40   41 1    
    79   40   42 1    
    80   40  102 1    
    81   41  103 1    
    82   41  104 1    
    83   41  105 1    
    84   42   43 am   BACKBONE|DICT|INTERRES
    85   42  106 1    
    86   43   44 2    
    87   43   45 1    
    88   45   46 1    
    89   45   49 1    
    90   45  107 1    
    91   46   47 1    
    92   46  108 1    
    93   46  109 1    
    94   47   48 1    
    95   48  110 1    
    96   48  111 1    
    97   49   50 am   BACKBONE|DICT|INTERRES
    98   49  112 1    
    99   50   51 2    
   100   50   52 1    
   101   52   53 1    
   102   52   54 1    
   103   52  113 1    
   104   53  114 1    
   105   53  115 1    
   106   53  116 1    
   107   54   55 am   BACKBONE|DICT|INTERRES
   108   54  117 1    
   109   55   56 2    
   110   55   57 1    
   111   57   58 1    
   112   57   59 1    
   113   57  118 1    
   114   58  119 1    
   115   58  120 1    
   116   58  121 1    
   117   59   60 am   BACKBONE|DICT|INTERRES
   118   59  122 1    
   119   60   61 2    
   120   60   62 1    
   121   62   63 1    
   122   62   64 1    
   123   62  123 1    
   124   63  124 1    
   125   63  125 1    
   126   63  126 1    
   127   64   65 am   BACKBONE|DICT|INTERRES
   128   64  127 1    
   129   65   66 2    
@<TRIPOS>SUBSTRUCTURE
     1 UNK         1 GROUP             0       ****    0 ROOT    
