@<TRIPOS>MOLECULE
3R134
127   129    1
SMALL
USER_CHARGES


@<TRIPOS>ATOM
      1 CA         29.5278  -45.2119  -52.7317 C.3       0 UNK        -0.1968 
      2 C          30.7236  -45.4346  -51.8235 C.2       0 UNK         0.4852 
      3 O          30.5627  -45.8902  -50.6898 O.2       0 UNK        -0.5359 
      4 N          31.9268  -45.1176  -52.3170 N.am      1 UNK        -0.4300 
      5 CA         33.1961  -45.1892  -51.5852 C.3       1 UNK         0.0863 
      6 C6         34.2572  -44.2370  -52.1946 C.3       11 UNK        -0.0953 
      7 S7         33.7369  -42.4895  -52.0978 S.3       11 UNK        -0.2369 
      8 C8         34.2505  -41.8368  -53.7174 C.3       11 UNK         0.0226 
      9 C9         33.3164  -42.2642  -54.8407 C.ar      11 UNK        -0.0699 
     10 C10        33.7002  -43.2683  -55.7348 C.ar      11 UNK        -0.0804 
     11 C11        32.8544  -43.6443  -56.7824 C.ar      11 UNK        -0.0871 
     12 C12        31.6322  -42.9895  -56.9500 C.ar      11 UNK        -0.1008 
     13 C13        31.2273  -41.9996  -56.0524 C.ar      11 UNK        -0.0735 
     14 C14        32.0756  -41.6373  -55.0010 C.ar      11 UNK        -0.0945 
     15 C15        29.8781  -41.3178  -56.2284 C.3       11 UNK         0.0169 
     16 S16        28.5896  -42.0645  -55.1785 S.3       11 UNK        -0.2669 
     17 C17        28.2752  -43.6721  -55.9900 C.3       11 UNK        -0.0850 
     18 CA         26.8812  -43.7614  -56.6698 C.3       10 UNK         0.0855 
     19 C          26.9187  -43.3522  -58.1732 C.2       10 UNK         0.5543 
     20 N          26.4677  -44.1808  -59.1087 N.am      10 UNK        -0.7343 
     21 O          27.3554  -42.2533  -58.5018 O.2       10 UNK        -0.5027 
     22 N          26.2643  -45.0730  -56.4197 N.am      10 UNK        -0.4495 
     23 C          24.9454  -45.2978  -56.3817 C.2       10 UNK         0.4903 
     24 O          24.0982  -44.4088  -56.4825 O.2       10 UNK        -0.4860 
     25 CA         24.5038  -46.7634  -56.2045 C.3       9 UNK         0.0227 
     26 CB         23.0145  -46.9859  -56.5422 C.3       9 UNK        -0.1964 
     27 N          25.3423  -47.7216  -56.9350 N.am      9 UNK        -0.4231 
     28 C          25.5799  -47.7624  -58.2565 C.2       9 UNK         0.5014 
     29 O          25.1439  -46.9257  -59.0487 O.2       9 UNK        -0.5270 
     30 CA         26.4673  -48.9022  -58.8026 C.3       8 UNK         0.0284 
     31 CB         27.6874  -48.3310  -59.5461 C.3       8 UNK        -0.1977 
     32 N          26.9384  -49.8357  -57.7768 N.am      8 UNK        -0.4342 
     33 C          26.2001  -50.7724  -57.1668 C.2       8 UNK         0.5039 
     34 O          25.0380  -51.0387  -57.4729 O.2       8 UNK        -0.5547 
     35 CA         26.8522  -51.4788  -55.9645 C.3       7 UNK         0.0281 
     36 CB         27.6589  -52.7078  -56.4142 C.3       7 UNK        -0.1963 
     37 N          27.7079  -50.5721  -55.1886 N.am      7 UNK        -0.4444 
     38 C          27.2538  -49.5345  -54.4701 C.2       7 UNK         0.5104 
     39 O          26.0601  -49.2691  -54.3365 O.2       7 UNK        -0.5100 
     40 CA         28.3025  -48.6016  -53.8454 C.3       6 UNK         0.0396 
     41 CB         28.7846  -49.1433  -52.4908 C.3       6 UNK        -0.1801 
     42 N          29.4509  -48.3894  -54.7268 N.am      6 UNK        -0.4747 
     43 C          29.4280  -47.6347  -55.8376 C.2       6 UNK         0.5012 
     44 O          28.4394  -47.0044  -56.2146 O.2       6 UNK        -0.5003 
     45 CA         30.7326  -47.5770  -56.6638 C.3       5 UNK         0.0782 
     46 C46        31.6587  -46.4968  -56.0544 C.3       11 UNK        -0.0868 
     47 S47        33.3000  -46.3865  -56.8545 S.3       11 UNK        -0.2515 
     48 C48        33.2370  -44.7821  -57.7175 C.3       11 UNK         0.0199 
     49 N          31.4148  -48.8707  -56.7343 N.am      5 UNK        -0.4607 
     50 C          30.8847  -50.0526  -57.0679 C.2       4 UNK         0.5031 
     51 O          29.7565  -50.1826  -57.5388 O.2       4 UNK        -0.5119 
     52 CA         31.7215  -51.3090  -56.7509 C.3       4 UNK         0.0263 
     53 CB         32.2939  -51.9065  -58.0457 C.3       4 UNK        -0.1967 
     54 N          32.8158  -51.1026  -55.7868 N.am      4 UNK        -0.4237 
     55 C          32.7045  -50.5893  -54.5505 C.2       3 UNK         0.4908 
     56 O          31.6280  -50.2360  -54.0612 O.2       3 UNK        -0.5102 
     57 CA         34.0237  -50.3841  -53.7779 C.3       3 UNK         0.0241 
     58 CB         35.1078  -49.7251  -54.6541 C.3       3 UNK        -0.1971 
     59 N          33.8451  -49.5528  -52.5874 N.am      3 UNK        -0.4139 
     60 C          33.3103  -49.9356  -51.4246 C.2       2 UNK         0.5016 
     61 O          32.9393  -51.0872  -51.1912 O.2       2 UNK        -0.5319 
     62 CA         33.1747  -48.8709  -50.3170 C.3       2 UNK         0.0286 
     63 CB         34.3836  -48.9296  -49.3628 C.3       2 UNK        -0.1963 
     64 N          32.9266  -47.4846  -50.7550 N.am      2 UNK        -0.4790 
     65 C          33.7060  -46.6431  -51.4506 C.2       1 UNK         0.5024 
     66 O          34.7708  -46.9758  -51.9730 O.2       1 UNK        -0.4888 
     67 H67        28.6542  -45.7465  -52.3582 H         1 UNK         0.0892 
     68 H68        29.2836  -44.1502  -52.7804 H         1 UNK         0.0892 
     69 H69        29.7410  -45.5683  -53.7378 H         1 UNK         0.0892 
     70 H70        31.9940  -44.7311  -53.2477 H         1 UNK         0.3107 
     71 H71        33.0123  -44.8446  -50.5647 H         1 UNK         0.0773 
     72 H72        35.2043  -44.3221  -51.6585 H         1 UNK         0.0680 
     73 H73        34.4659  -44.5107  -53.2298 H         1 UNK         0.0680 
     74 H74        35.2769  -42.1445  -53.9240 H         1 UNK         0.0650 
     75 H75        34.2668  -40.7473  -53.6631 H         1 UNK         0.0650 
     76 H76        34.6511  -43.7685  -55.6116 H         1 UNK         0.1397 
     77 H77        30.9833  -43.2674  -57.7692 H         1 UNK         0.1363 
     78 H78        31.7707  -40.8659  -54.3068 H         1 UNK         0.1355 
     79 H79        29.5650  -41.3461  -57.2727 H         1 UNK         0.0707 
     80 H80        29.9696  -40.2618  -55.9702 H         1 UNK         0.0707 
     81 H81        29.0716  -43.9336  -56.6842 H         1 UNK         0.1034 
     82 H82        28.3434  -44.4145  -55.1970 H         1 UNK         0.1034 
     83 H83        26.2367  -43.0225  -56.1909 H         1 UNK         0.0482 
     84 H84        26.0635  -45.0784  -58.8694 H         1 UNK         0.3460 
     85 H85        26.4965  -43.8899  -60.0720 H         1 UNK         0.3460 
     86 H86        26.9039  -45.8613  -56.3596 H         1 UNK         0.2989 
     87 H87        24.6380  -46.9903  -55.1463 H         1 UNK         0.0559 
     88 H88        22.3725  -46.3702  -55.9113 H         1 UNK         0.0848 
     89 H89        22.7228  -48.0238  -56.3826 H         1 UNK         0.0848 
     90 H90        22.7930  -46.7311  -57.5791 H         1 UNK         0.0848 
     91 H91        25.7687  -48.4359  -56.3583 H         1 UNK         0.3144 
     92 H92        25.8633  -49.4622  -59.5191 H         1 UNK         0.0727 
     93 H93        28.3079  -47.7210  -58.8900 H         1 UNK         0.0790 
     94 H94        27.3792  -47.7003  -60.3808 H         1 UNK         0.0790 
     95 H95        28.3122  -49.1252  -59.9551 H         1 UNK         0.0790 
     96 H96        27.9208  -49.7656  -57.5191 H         1 UNK         0.3215 
     97 H97        26.0488  -51.8227  -55.3091 H         1 UNK         0.0863 
     98 H98        28.0935  -53.2316  -55.5628 H         1 UNK         0.0808 
     99 H99        28.4679  -52.4414  -57.0943 H         1 UNK         0.0808 
    100 H100       27.0188  -53.4189  -56.9381 H         1 UNK         0.0808 
    101 H101       28.7064  -50.6925  -55.2768 H         1 UNK         0.3118 
    102 H102       27.8220  -47.6368  -53.6718 H         1 UNK         0.0546 
    103 H103       29.2777  -50.1109  -52.5925 H         1 UNK         0.0828 
    104 H104       27.9481  -49.2735  -51.8029 H         1 UNK         0.0828 
    105 H105       29.4894  -48.4594  -52.0176 H         1 UNK         0.0828 
    106 H106       30.2965  -48.9098  -54.5012 H         1 UNK         0.3005 
    107 H107       30.4686  -47.2877  -57.6828 H         1 UNK         0.1257 
    108 H108       31.1578  -45.5298  -56.0761 H         1 UNK         0.0775 
    109 H109       31.8459  -46.7077  -54.9993 H         1 UNK         0.0775 
    110 H110       34.2138  -44.5757  -58.1569 H         1 UNK         0.0840 
    111 H111       32.5362  -44.8572  -58.5504 H         1 UNK         0.0840 
    112 H112       32.3629  -48.8686  -56.3897 H         1 UNK         0.2987 
    113 H113       31.0387  -52.0380  -56.3101 H         1 UNK         0.0785 
    114 H114       31.5017  -52.0992  -58.7709 H         1 UNK         0.0798 
    115 H115       32.7948  -52.8567  -57.8590 H         1 UNK         0.0798 
    116 H116       33.0108  -51.2336  -58.5182 H         1 UNK         0.0798 
    117 H117       33.7380  -51.3594  -56.1085 H         1 UNK         0.3079 
    118 H118       34.3773  -51.3676  -53.4629 H         1 UNK         0.0794 
    119 H119       36.0137  -49.5312  -54.0789 H         1 UNK         0.0786 
    120 H120       34.7705  -48.7729  -55.0657 H         1 UNK         0.0786 
    121 H121       35.4001  -50.3622  -55.4888 H         1 UNK         0.0786 
    122 H122       34.1587  -48.5884  -52.6459 H         1 UNK         0.3032 
    123 H123       32.2912  -49.1536  -49.7418 H         1 UNK         0.1094 
    124 H124       34.5151  -49.9353  -48.9611 H         1 UNK         0.0794 
    125 H125       35.3125  -48.6587  -49.8657 H         1 UNK         0.0794 
    126 H126       34.2524  -48.2581  -48.5143 H         1 UNK         0.0794 
    127 H127       32.0305  -47.0979  -50.4636 H         1 UNK         0.3016 
@<TRIPOS>BOND
     1    1    2 1    
     2    1   67 1    
     3    1   68 1    
     4    1   69 1    
     5    2    3 2    
     6    2    4 am   BACKBONE|DICT|INTERRES
     7    4    5 1    
     8    4   70 1    
     9    5    6 1    
    10    5   65 1    
    11    5   71 1    
    12    6    7 1    
    13    6   72 1    
    14    6   73 1    
    15    7    8 1    
    16    8    9 1    
    17    8   74 1    
    18    8   75 1    
    19    9   10 ar   
    20    9   14 ar   
    21   10   11 ar   
    22   10   76 1    
    23   11   12 ar   
    24   11   48 1    
    25   12   13 ar   
    26   12   77 1    
    27   13   14 ar   
    28   13   15 1    
    29   14   78 1    
    30   15   16 1    
    31   15   79 1    
    32   15   80 1    
    33   16   17 1    
    34   17   18 1    
    35   17   81 1    
    36   17   82 1    
    37   18   19 1    
    38   18   22 1    
    39   18   83 1    
    40   19   20 am   BACKBONE|DICT|INTERRES
    41   19   21 2    
    42   20   84 1    
    43   20   85 1    
    44   22   23 am   BACKBONE|DICT|INTERRES
    45   22   86 1    
    46   23   24 2    
    47   23   25 1    
    48   25   26 1    
    49   25   27 1    
    50   25   87 1    
    51   26   88 1    
    52   26   89 1    
    53   26   90 1    
    54   27   28 am   BACKBONE|DICT|INTERRES
    55   27   91 1    
    56   28   29 2    
    57   28   30 1    
    58   30   31 1    
    59   30   32 1    
    60   30   92 1    
    61   31   93 1    
    62   31   94 1    
    63   31   95 1    
    64   32   33 am   BACKBONE|DICT|INTERRES
    65   32   96 1    
    66   33   34 2    
    67   33   35 1    
    68   35   36 1    
    69   35   37 1    
    70   35   97 1    
    71   36   98 1    
    72   36   99 1    
    73   36  100 1    
    74   37   38 am   BACKBONE|DICT|INTERRES
    75   37  101 1    
    76   38   39 2    
    77   38   40 1    
    78   40   41 1    
    79   40   42 1    
    80   40  102 1    
    81   41  103 1    
    82   41  104 1    
    83   41  105 1    
    84   42   43 am   BACKBONE|DICT|INTERRES
    85   42  106 1    
    86   43   44 2    
    87   43   45 1    
    88   45   46 1    
    89   45   49 1    
    90   45  107 1    
    91   46   47 1    
    92   46  108 1    
    93   46  109 1    
    94   47   48 1    
    95   48  110 1    
    96   48  111 1    
    97   49   50 am   BACKBONE|DICT|INTERRES
    98   49  112 1    
    99   50   51 2    
   100   50   52 1    
   101   52   53 1    
   102   52   54 1    
   103   52  113 1    
   104   53  114 1    
   105   53  115 1    
   106   53  116 1    
   107   54   55 am   BACKBONE|DICT|INTERRES
   108   54  117 1    
   109   55   56 2    
   110   55   57 1    
   111   57   58 1    
   112   57   59 1    
   113   57  118 1    
   114   58  119 1    
   115   58  120 1    
   116   58  121 1    
   117   59   60 am   BACKBONE|DICT|INTERRES
   118   59  122 1    
   119   60   61 2    
   120   60   62 1    
   121   62   63 1    
   122   62   64 1    
   123   62  123 1    
   124   63  124 1    
   125   63  125 1    
   126   63  126 1    
   127   64   65 am   BACKBONE|DICT|INTERRES
   128   64  127 1    
   129   65   66 2    
@<TRIPOS>SUBSTRUCTURE
     1 UNK         1 GROUP             0       ****    0 ROOT    
