@<TRIPOS>MOLECULE
3R134
127   129    1
SMALL
USER_CHARGES


@<TRIPOS>ATOM
      1 CA         32.6905  -46.4496  -50.4615 C.3       0 UNK        -0.1968 
      2 C          33.3170  -46.3992  -51.8459 C.2       0 UNK         0.4852 
      3 O          32.6644  -46.7661  -52.8237 O.2       0 UNK        -0.5359 
      4 N          34.5851  -45.9688  -51.9273 N.am      1 UNK        -0.4300 
      5 CA         35.3695  -45.7837  -53.1597 C.3       1 UNK         0.0863 
      6 C6         34.8358  -44.6279  -54.0470 C.3       11 UNK        -0.0953 
      7 S7         34.8200  -43.0305  -53.1758 S.3       11 UNK        -0.2369 
      8 C8         33.7445  -42.0644  -54.2883 C.3       11 UNK         0.0226 
      9 C9         32.2345  -42.2663  -54.1270 C.ar      11 UNK        -0.0699 
     10 C10        31.6533  -42.9222  -53.0297 C.ar      11 UNK        -0.0804 
     11 C11        30.2614  -42.9851  -52.8903 C.ar      11 UNK        -0.0871 
     12 C12        29.4497  -42.3835  -53.8554 C.ar      11 UNK        -0.1008 
     13 C13        30.0096  -41.7624  -54.9729 C.ar      11 UNK        -0.0735 
     14 C14        31.3994  -41.7079  -55.1006 C.ar      11 UNK        -0.0945 
     15 C15        29.1107  -41.1191  -56.0207 C.3       11 UNK         0.0169 
     16 S16        28.0237  -42.3325  -56.8349 S.3       11 UNK        -0.2669 
     17 C17        29.2382  -43.3813  -57.7041 C.3       11 UNK        -0.0850 
     18 CA         28.6188  -44.1026  -58.9286 C.3       10 UNK         0.0855 
     19 C          29.7098  -44.8541  -59.7389 C.2       10 UNK         0.5543 
     20 N          29.8548  -46.1638  -59.5807 N.am      10 UNK        -0.7343 
     21 O          30.4245  -44.2395  -60.5263 O.2       10 UNK        -0.5027 
     22 N          27.4906  -44.9648  -58.5407 N.am      10 UNK        -0.4495 
     23 C          26.4367  -45.2266  -59.3196 C.2       10 UNK         0.4903 
     24 O          26.2932  -44.7789  -60.4590 O.2       10 UNK        -0.4860 
     25 CA         25.3792  -46.1664  -58.7255 C.3       9 UNK         0.0227 
     26 CB         24.0387  -46.1052  -59.4829 C.3       9 UNK        -0.1964 
     27 N          25.8879  -47.5356  -58.7646 N.am      9 UNK        -0.4231 
     28 C          26.1512  -48.2864  -57.6905 C.2       9 UNK         0.5014 
     29 O          25.9621  -47.9183  -56.5264 O.2       9 UNK        -0.5270 
     30 CA         26.7111  -49.6901  -57.9627 C.3       8 UNK         0.0284 
     31 CB         28.0712  -49.6537  -58.6877 C.3       8 UNK        -0.1977 
     32 N          26.8581  -50.3678  -56.6823 N.am      8 UNK        -0.4342 
     33 C          26.8238  -51.6834  -56.4557 C.2       8 UNK         0.5039 
     34 O          26.6792  -52.5272  -57.3415 O.2       8 UNK        -0.5547 
     35 CA         26.9857  -52.1428  -54.9942 C.3       7 UNK         0.0281 
     36 CB         28.3704  -52.7753  -54.7894 C.3       7 UNK        -0.1963 
     37 N          26.8112  -51.0476  -54.0332 N.am      7 UNK        -0.4444 
     38 C          25.6280  -50.5865  -53.6111 C.2       7 UNK         0.5104 
     39 O          24.5484  -51.0818  -53.9351 O.2       7 UNK        -0.5100 
     40 CA         25.6419  -49.3489  -52.6962 C.3       6 UNK         0.0396 
     41 CB         26.1295  -49.6972  -51.2757 C.3       6 UNK        -0.1801 
     42 N          26.3607  -48.1963  -53.2606 N.am      6 UNK        -0.4747 
     43 C          27.6761  -48.0491  -53.4772 C.2       6 UNK         0.5012 
     44 O          28.5128  -48.9206  -53.2199 O.2       6 UNK        -0.5003 
     45 CA         28.1132  -46.7054  -54.0937 C.3       5 UNK         0.0782 
     46 C46        28.0149  -45.5339  -53.0803 C.3       11 UNK        -0.0868 
     47 S47        29.3858  -45.4439  -51.8693 S.3       11 UNK        -0.2515 
     48 C48        29.6301  -43.6469  -51.6697 C.3       11 UNK         0.0199 
     49 N          29.4606  -46.8444  -54.6357 N.am      5 UNK        -0.4607 
     50 C          29.7819  -46.9735  -55.9247 C.2       4 UNK         0.5031 
     51 O          28.9861  -46.8359  -56.8524 O.2       4 UNK        -0.5119 
     52 CA         31.2478  -47.3180  -56.2284 C.3       4 UNK         0.0263 
     53 CB         32.0594  -46.0281  -56.4214 C.3       4 UNK        -0.1967 
     54 N          31.8396  -48.1211  -55.1539 N.am      4 UNK        -0.4237 
     55 C          31.5819  -49.4223  -54.9568 C.2       3 UNK         0.4908 
     56 O          30.9451  -50.1207  -55.7477 O.2       3 UNK        -0.5102 
     57 CA         32.1146  -50.0237  -53.6418 C.3       3 UNK         0.0241 
     58 CB         31.8415  -51.5351  -53.4928 C.3       3 UNK        -0.1971 
     59 N          33.5321  -49.7216  -53.4226 N.am      3 UNK        -0.4139 
     60 C          34.5846  -50.1111  -54.1579 C.2       2 UNK         0.5016 
     61 O          34.5126  -50.8491  -55.1422 O.2       2 UNK        -0.5319 
     62 CA         35.9542  -49.5741  -53.6893 C.3       2 UNK         0.0286 
     63 CB         37.0713  -49.7526  -54.7410 C.3       2 UNK        -0.1963 
     64 N          35.8798  -48.1816  -53.2186 N.am      2 UNK        -0.4790 
     65 C          35.5337  -47.1053  -53.9448 C.2       1 UNK         0.5024 
     66 O          35.3175  -47.1382  -55.1570 O.2       1 UNK        -0.4888 
     67 H67        32.0380  -45.5895  -50.3169 H         1 UNK         0.0892 
     68 H68        32.0912  -47.3530  -50.3512 H         1 UNK         0.0892 
     69 H69        33.4439  -46.4446  -49.6743 H         1 UNK         0.0892 
     70 H70        35.0583  -45.6903  -51.0788 H         1 UNK         0.3107 
     71 H71        36.3767  -45.5098  -52.8416 H         1 UNK         0.0773 
     72 H72        33.8263  -44.8480  -54.3915 H         1 UNK         0.0680 
     73 H73        35.4508  -44.5085  -54.9409 H         1 UNK         0.0680 
     74 H74        34.0336  -42.2731  -55.3197 H         1 UNK         0.0650 
     75 H75        33.9595  -41.0086  -54.1192 H         1 UNK         0.0650 
     76 H76        32.2737  -43.3637  -52.2634 H         1 UNK         0.1397 
     77 H77        28.3744  -42.3967  -53.7440 H         1 UNK         0.1363 
     78 H78        31.8368  -41.2012  -55.9503 H         1 UNK         0.1355 
     79 H79        29.6981  -40.5978  -56.7782 H         1 UNK         0.0707 
     80 H80        28.4919  -40.3614  -55.5383 H         1 UNK         0.0707 
     81 H81        30.0767  -42.7566  -58.0184 H         1 UNK         0.1034 
     82 H82        29.6434  -44.1010  -56.9914 H         1 UNK         0.1034 
     83 H83        28.2359  -43.3233  -59.5910 H         1 UNK         0.0482 
     84 H84        30.5529  -46.6572  -60.1129 H         1 UNK         0.3460 
     85 H85        29.3298  -46.6348  -58.8543 H         1 UNK         0.3460 
     86 H86        27.5981  -45.4623  -57.6645 H         1 UNK         0.2989 
     87 H87        25.1958  -45.8426  -57.6987 H         1 UNK         0.0559 
     88 H88        24.1400  -46.4276  -60.5199 H         1 UNK         0.0848 
     89 H89        23.2890  -46.7387  -59.0085 H         1 UNK         0.0848 
     90 H90        23.6433  -45.0887  -59.4937 H         1 UNK         0.0848 
     91 H91        26.1054  -47.9014  -59.6813 H         1 UNK         0.3144 
     92 H92        25.9822  -50.2263  -58.5739 H         1 UNK         0.0727 
     93 H93        28.4213  -50.6609  -58.9143 H         1 UNK         0.0790 
     94 H94        28.8374  -49.1712  -58.0806 H         1 UNK         0.0790 
     95 H95        28.0129  -49.1157  -59.6341 H         1 UNK         0.0790 
     96 H96        26.8923  -49.7341  -55.8936 H         1 UNK         0.3215 
     97 H97        26.2290  -52.9064  -54.8010 H         1 UNK         0.0863 
     98 H98        28.5231  -53.0840  -53.7552 H         1 UNK         0.0808 
     99 H99        29.1661  -52.0818  -55.0614 H         1 UNK         0.0808 
    100 H100       28.4886  -53.6617  -55.4140 H         1 UNK         0.0808 
    101 H101       27.6425  -50.5427  -53.7338 H         1 UNK         0.3118 
    102 H102       24.6050  -49.0213  -52.6037 H         1 UNK         0.0546 
    103 H103       25.5118  -50.4815  -50.8364 H         1 UNK         0.0828 
    104 H104       26.0723  -48.8324  -50.6148 H         1 UNK         0.0828 
    105 H105       27.1585  -50.0570  -51.2664 H         1 UNK         0.0828 
    106 H106       25.7566  -47.4435  -53.5630 H         1 UNK         0.3005 
    107 H107       27.4206  -46.4945  -54.9112 H         1 UNK         0.1257 
    108 H108       27.0701  -45.5559  -52.5344 H         1 UNK         0.0775 
    109 H109       27.9875  -44.6094  -53.6515 H         1 UNK         0.0775 
    110 H110       28.6730  -43.1786  -51.4347 H         1 UNK         0.0840 
    111 H111       30.2650  -43.4793  -50.7986 H         1 UNK         0.0840 
    112 H112       30.1820  -46.9822  -53.9413 H         1 UNK         0.2987 
    113 H113       31.2812  -47.8933  -57.1559 H         1 UNK         0.0785 
    114 H114       31.7232  -45.4875  -57.3064 H         1 UNK         0.0798 
    115 H115       33.1204  -46.2385  -56.5551 H         1 UNK         0.0798 
    116 H116       31.9494  -45.3555  -55.5698 H         1 UNK         0.0798 
    117 H117       32.3306  -47.6117  -54.4195 H         1 UNK         0.3079 
    118 H118       31.5715  -49.5180  -52.8412 H         1 UNK         0.0794 
    119 H119       30.7708  -51.7264  -53.4384 H         1 UNK         0.0786 
    120 H120       32.2831  -51.9313  -52.5786 H         1 UNK         0.0786 
    121 H121       32.2372  -52.1067  -54.3330 H         1 UNK         0.0786 
    122 H122       33.7161  -49.0705  -52.6728 H         1 UNK         0.3032 
    123 H123       36.2276  -50.1786  -52.8225 H         1 UNK         0.1094 
    124 H124       38.0238  -49.3662  -54.3786 H         1 UNK         0.0794 
    125 H125       37.2194  -50.8074  -54.9758 H         1 UNK         0.0794 
    126 H126       36.8363  -49.2450  -55.6768 H         1 UNK         0.0794 
    127 H127       36.0404  -48.0451  -52.2294 H         1 UNK         0.3016 
@<TRIPOS>BOND
     1    1    2 1    
     2    1   67 1    
     3    1   68 1    
     4    1   69 1    
     5    2    3 2    
     6    2    4 am   BACKBONE|DICT|INTERRES
     7    4    5 1    
     8    4   70 1    
     9    5    6 1    
    10    5   65 1    
    11    5   71 1    
    12    6    7 1    
    13    6   72 1    
    14    6   73 1    
    15    7    8 1    
    16    8    9 1    
    17    8   74 1    
    18    8   75 1    
    19    9   10 ar   
    20    9   14 ar   
    21   10   11 ar   
    22   10   76 1    
    23   11   12 ar   
    24   11   48 1    
    25   12   13 ar   
    26   12   77 1    
    27   13   14 ar   
    28   13   15 1    
    29   14   78 1    
    30   15   16 1    
    31   15   79 1    
    32   15   80 1    
    33   16   17 1    
    34   17   18 1    
    35   17   81 1    
    36   17   82 1    
    37   18   19 1    
    38   18   22 1    
    39   18   83 1    
    40   19   20 am   BACKBONE|DICT|INTERRES
    41   19   21 2    
    42   20   84 1    
    43   20   85 1    
    44   22   23 am   BACKBONE|DICT|INTERRES
    45   22   86 1    
    46   23   24 2    
    47   23   25 1    
    48   25   26 1    
    49   25   27 1    
    50   25   87 1    
    51   26   88 1    
    52   26   89 1    
    53   26   90 1    
    54   27   28 am   BACKBONE|DICT|INTERRES
    55   27   91 1    
    56   28   29 2    
    57   28   30 1    
    58   30   31 1    
    59   30   32 1    
    60   30   92 1    
    61   31   93 1    
    62   31   94 1    
    63   31   95 1    
    64   32   33 am   BACKBONE|DICT|INTERRES
    65   32   96 1    
    66   33   34 2    
    67   33   35 1    
    68   35   36 1    
    69   35   37 1    
    70   35   97 1    
    71   36   98 1    
    72   36   99 1    
    73   36  100 1    
    74   37   38 am   BACKBONE|DICT|INTERRES
    75   37  101 1    
    76   38   39 2    
    77   38   40 1    
    78   40   41 1    
    79   40   42 1    
    80   40  102 1    
    81   41  103 1    
    82   41  104 1    
    83   41  105 1    
    84   42   43 am   BACKBONE|DICT|INTERRES
    85   42  106 1    
    86   43   44 2    
    87   43   45 1    
    88   45   46 1    
    89   45   49 1    
    90   45  107 1    
    91   46   47 1    
    92   46  108 1    
    93   46  109 1    
    94   47   48 1    
    95   48  110 1    
    96   48  111 1    
    97   49   50 am   BACKBONE|DICT|INTERRES
    98   49  112 1    
    99   50   51 2    
   100   50   52 1    
   101   52   53 1    
   102   52   54 1    
   103   52  113 1    
   104   53  114 1    
   105   53  115 1    
   106   53  116 1    
   107   54   55 am   BACKBONE|DICT|INTERRES
   108   54  117 1    
   109   55   56 2    
   110   55   57 1    
   111   57   58 1    
   112   57   59 1    
   113   57  118 1    
   114   58  119 1    
   115   58  120 1    
   116   58  121 1    
   117   59   60 am   BACKBONE|DICT|INTERRES
   118   59  122 1    
   119   60   61 2    
   120   60   62 1    
   121   62   63 1    
   122   62   64 1    
   123   62  123 1    
   124   63  124 1    
   125   63  125 1    
   126   63  126 1    
   127   64   65 am   BACKBONE|DICT|INTERRES
   128   64  127 1    
   129   65   66 2    
@<TRIPOS>SUBSTRUCTURE
     1 UNK         1 GROUP             0       ****    0 ROOT    
