@<TRIPOS>MOLECULE
3R134
127   129    1
SMALL
USER_CHARGES


@<TRIPOS>ATOM
      1 CA         37.6641  -49.3312  -53.2313 C.3       0 UNK        -0.1968 
      2 C          36.3948  -48.6134  -53.6622 C.2       0 UNK         0.4852 
      3 O          35.3438  -49.2460  -53.7662 O.2       0 UNK        -0.5359 
      4 N          36.4760  -47.2953  -53.8952 N.am      1 UNK        -0.4300 
      5 CA         35.3769  -46.4276  -54.3456 C.3       1 UNK         0.0863 
      6 C6         35.8680  -44.9693  -54.5317 C.3       11 UNK        -0.0953 
      7 S7         34.8838  -44.0249  -55.7431 S.3       11 UNK        -0.2369 
      8 C8         34.2191  -42.6509  -54.7461 C.3       11 UNK         0.0226 
      9 C9         32.7046  -42.7274  -54.6428 C.ar      11 UNK        -0.0699 
     10 C10        32.0959  -43.3150  -53.5282 C.ar      11 UNK        -0.0804 
     11 C11        30.7021  -43.3974  -53.4482 C.ar      11 UNK        -0.0871 
     12 C12        29.9201  -42.8554  -54.4721 C.ar      11 UNK        -0.1008 
     13 C13        30.5180  -42.3083  -55.6082 C.ar      11 UNK        -0.0735 
     14 C14        31.9110  -42.2297  -55.6823 C.ar      11 UNK        -0.0945 
     15 C15        29.6473  -41.8709  -56.7734 C.3       11 UNK         0.0169 
     16 S16        29.1629  -43.3171  -57.7713 S.3       11 UNK        -0.2669 
     17 C17        27.7390  -42.6420  -58.6878 C.3       11 UNK        -0.0850 
     18 CA         26.3979  -42.9158  -57.9597 C.3       10 UNK         0.0855 
     19 C          25.2359  -42.1418  -58.6392 C.2       10 UNK         0.5543 
     20 N          24.9800  -40.9120  -58.2148 N.am      10 UNK        -0.7343 
     21 O          24.5965  -42.6260  -59.5712 O.2       10 UNK        -0.5027 
     22 N          26.1146  -44.3551  -57.8594 N.am      10 UNK        -0.4495 
     23 C          25.2174  -44.8997  -57.0315 C.2       10 UNK         0.4903 
     24 O          24.6054  -44.2540  -56.1797 O.2       10 UNK        -0.4860 
     25 CA         24.9401  -46.4123  -57.1446 C.3       9 UNK         0.0227 
     26 CB         23.6563  -46.6715  -57.9574 C.3       9 UNK        -0.1964 
     27 N          26.0515  -47.2479  -57.6290 N.am      9 UNK        -0.4231 
     28 C          26.6130  -47.2848  -58.8472 C.2       9 UNK         0.5014 
     29 O          26.3218  -46.5058  -59.7552 O.2       9 UNK        -0.5270 
     30 CA         27.6941  -48.3499  -59.1122 C.3       8 UNK         0.0284 
     31 CB         29.0906  -47.7079  -59.1802 C.3       8 UNK        -0.1977 
     32 N          27.7072  -49.4639  -58.1556 N.am      8 UNK        -0.4342 
     33 C          26.7939  -50.4473  -58.1258 C.2       8 UNK         0.5039 
     34 O          25.8004  -50.4784  -58.8524 O.2       8 UNK        -0.5547 
     35 CA         27.0266  -51.5926  -57.1285 C.3       7 UNK         0.0281 
     36 CB         28.1161  -52.5474  -57.6454 C.3       7 UNK        -0.1963 
     37 N          27.4123  -51.0792  -55.8148 N.am      7 UNK        -0.4444 
     38 C          26.5842  -50.9500  -54.7678 C.2       7 UNK         0.5104 
     39 O          25.4117  -51.3260  -54.7680 O.2       7 UNK        -0.5100 
     40 CA         27.1512  -50.2688  -53.5052 C.3       6 UNK         0.0396 
     41 CB         27.6444  -51.3218  -52.5015 C.3       6 UNK        -0.1801 
     42 N          28.2329  -49.3253  -53.8072 N.am      6 UNK        -0.4747 
     43 C          28.0495  -48.1868  -54.4953 C.2       6 UNK         0.5012 
     44 O          26.9379  -47.7741  -54.8249 O.2       6 UNK        -0.5003 
     45 CA         29.2899  -47.4191  -54.9924 C.3       5 UNK         0.0782 
     46 C46        29.4142  -46.0108  -54.3815 C.3       11 UNK        -0.0868 
     47 S47        29.9381  -45.9510  -52.6328 S.3       11 UNK        -0.2515 
     48 C48        30.0264  -44.1517  -52.3109 C.3       11 UNK         0.0199 
     49 N          30.5446  -48.1782  -54.9549 N.am      5 UNK        -0.4607 
     50 C          30.7844  -49.2615  -55.7058 C.2       4 UNK         0.5031 
     51 O          29.9637  -49.7264  -56.4986 O.2       4 UNK        -0.5119 
     52 CA         32.1319  -49.9753  -55.5202 C.3       4 UNK         0.0263 
     53 CB         33.1866  -49.3682  -56.4575 C.3       4 UNK        -0.1967 
     54 N          32.6345  -49.9627  -54.1434 N.am      4 UNK        -0.4237 
     55 C          31.9915  -50.4543  -53.0727 C.2       3 UNK         0.4908 
     56 O          30.8663  -50.9506  -53.1171 O.2       3 UNK        -0.5102 
     57 CA         32.7138  -50.3515  -51.7225 C.3       3 UNK         0.0241 
     58 CB         33.7977  -51.4346  -51.5909 C.3       3 UNK        -0.1971 
     59 N          33.3093  -49.0245  -51.5659 N.am      3 UNK        -0.4139 
     60 C          32.6956  -47.9923  -50.9707 C.2       2 UNK         0.5016 
     61 O          31.6324  -48.0950  -50.3579 O.2       2 UNK        -0.5319 
     62 CA         33.3707  -46.6087  -51.0546 C.3       2 UNK         0.0286 
     63 CB         34.0083  -46.2367  -49.7061 C.3       2 UNK        -0.1963 
     64 N          34.3842  -46.4885  -52.1068 N.am      2 UNK        -0.4790 
     65 C          34.1386  -46.5018  -53.4259 C.2       1 UNK         0.5024 
     66 O          33.0176  -46.6366  -53.9148 O.2       1 UNK        -0.4888 
     67 H67        37.5183  -49.7957  -52.2565 H         1 UNK         0.0892 
     68 H68        38.5144  -48.6532  -53.1617 H         1 UNK         0.0892 
     69 H69        37.9110  -50.1140  -53.9479 H         1 UNK         0.0892 
     70 H70        37.3705  -46.8392  -53.7843 H         1 UNK         0.3107 
     71 H71        35.0748  -46.8146  -55.3208 H         1 UNK         0.0773 
     72 H72        36.8861  -44.9714  -54.9245 H         1 UNK         0.0680 
     73 H73        35.9316  -44.4468  -53.5760 H         1 UNK         0.0680 
     74 H74        34.6649  -42.6290  -53.7514 H         1 UNK         0.0650 
     75 H75        34.5043  -41.7103  -55.2196 H         1 UNK         0.0650 
     76 H76        32.7052  -43.7422  -52.7439 H         1 UNK         0.1397 
     77 H77        28.8425  -42.9370  -54.4263 H         1 UNK         0.1363 
     78 H78        32.3801  -41.8103  -56.5620 H         1 UNK         0.1355 
     79 H79        30.1716  -41.1504  -57.4031 H         1 UNK         0.0707 
     80 H80        28.7576  -41.3665  -56.3931 H         1 UNK         0.0707 
     81 H81        27.7273  -43.0837  -59.6861 H         1 UNK         0.1034 
     82 H82        27.8930  -41.5712  -58.8365 H         1 UNK         0.1034 
     83 H83        26.4915  -42.5342  -56.9406 H         1 UNK         0.0482 
     84 H84        24.2398  -40.3868  -58.6539 H         1 UNK         0.3460 
     85 H85        25.5014  -40.5013  -57.4559 H         1 UNK         0.3460 
     86 H86        26.4921  -44.9468  -58.5915 H         1 UNK         0.2989 
     87 H87        24.7495  -46.7583  -56.1276 H         1 UNK         0.0559 
     88 H88        23.7501  -46.3270  -58.9877 H         1 UNK         0.0848 
     89 H89        22.8059  -46.1474  -57.5191 H         1 UNK         0.0848 
     90 H90        23.4072  -47.7325  -57.9788 H         1 UNK         0.0848 
     91 H91        26.4176  -47.8814  -56.9286 H         1 UNK         0.3144 
     92 H92        27.4813  -48.7702  -60.0976 H         1 UNK         0.0727 
     93 H93        29.8595  -48.4491  -59.3992 H         1 UNK         0.0790 
     94 H94        29.3621  -47.2078  -58.2527 H         1 UNK         0.0790 
     95 H95        29.1329  -46.9572  -59.9708 H         1 UNK         0.0790 
     96 H96        28.5286  -49.5441  -57.5571 H         1 UNK         0.3215 
     97 H97        26.0964  -52.1600  -57.0511 H         1 UNK         0.0863 
     98 H98        28.2458  -53.3969  -56.9748 H         1 UNK         0.0808 
     99 H99        29.0822  -52.0512  -57.7454 H         1 UNK         0.0808 
    100 H100       27.8512  -52.9464  -58.6255 H         1 UNK         0.0808 
    101 H101       28.3567  -50.7192  -55.7314 H         1 UNK         0.3118 
    102 H102       26.3392  -49.7092  -53.0359 H         1 UNK         0.0546 
    103 H103       26.8263  -51.9713  -52.1875 H         1 UNK         0.0828 
    104 H104       28.0539  -50.8579  -51.6041 H         1 UNK         0.0828 
    105 H105       28.4163  -51.9603  -52.9323 H         1 UNK         0.0828 
    106 H106       29.1767  -49.6218  -53.5826 H         1 UNK         0.3005 
    107 H107       29.0814  -47.2504  -56.0486 H         1 UNK         0.1257 
    108 H108       28.4805  -45.4560  -54.4936 H         1 UNK         0.0775 
    109 H109       30.1563  -45.4768  -54.9757 H         1 UNK         0.0775 
    110 H110       29.0164  -43.7703  -52.1531 H         1 UNK         0.0840 
    111 H111       30.5649  -43.9819  -51.3775 H         1 UNK         0.0840 
    112 H112       31.2752  -47.8175  -54.3497 H         1 UNK         0.2987 
    113 H113       31.9861  -51.0204  -55.8001 H         1 UNK         0.0785 
    114 H114       32.8598  -49.4167  -57.4972 H         1 UNK         0.0798 
    115 H115       34.1346  -49.9024  -56.3894 H         1 UNK         0.0798 
    116 H116       33.3747  -48.3201  -56.2230 H         1 UNK         0.0798 
    117 H117       33.5813  -49.6085  -54.0160 H         1 UNK         0.3079 
    118 H118       31.9767  -50.5248  -50.9353 H         1 UNK         0.0794 
    119 H119       34.5641  -51.3475  -52.3613 H         1 UNK         0.0786 
    120 H120       33.3620  -52.4308  -51.6782 H         1 UNK         0.0786 
    121 H121       34.2921  -51.3816  -50.6208 H         1 UNK         0.0786 
    122 H122       34.1651  -48.8511  -52.0796 H         1 UNK         0.3032 
    123 H123       32.5817  -45.8854  -51.2692 H         1 UNK         0.1094 
    124 H124       34.4086  -45.2227  -49.7217 H         1 UNK         0.0794 
    125 H125       33.2725  -46.2787  -48.9016 H         1 UNK         0.0794 
    126 H126       34.8191  -46.9165  -49.4415 H         1 UNK         0.0794 
    127 H127       35.3436  -46.4049  -51.8024 H         1 UNK         0.3016 
@<TRIPOS>BOND
     1    1    2 1    
     2    1   67 1    
     3    1   68 1    
     4    1   69 1    
     5    2    3 2    
     6    2    4 am   BACKBONE|DICT|INTERRES
     7    4    5 1    
     8    4   70 1    
     9    5    6 1    
    10    5   65 1    
    11    5   71 1    
    12    6    7 1    
    13    6   72 1    
    14    6   73 1    
    15    7    8 1    
    16    8    9 1    
    17    8   74 1    
    18    8   75 1    
    19    9   10 ar   
    20    9   14 ar   
    21   10   11 ar   
    22   10   76 1    
    23   11   12 ar   
    24   11   48 1    
    25   12   13 ar   
    26   12   77 1    
    27   13   14 ar   
    28   13   15 1    
    29   14   78 1    
    30   15   16 1    
    31   15   79 1    
    32   15   80 1    
    33   16   17 1    
    34   17   18 1    
    35   17   81 1    
    36   17   82 1    
    37   18   19 1    
    38   18   22 1    
    39   18   83 1    
    40   19   20 am   BACKBONE|DICT|INTERRES
    41   19   21 2    
    42   20   84 1    
    43   20   85 1    
    44   22   23 am   BACKBONE|DICT|INTERRES
    45   22   86 1    
    46   23   24 2    
    47   23   25 1    
    48   25   26 1    
    49   25   27 1    
    50   25   87 1    
    51   26   88 1    
    52   26   89 1    
    53   26   90 1    
    54   27   28 am   BACKBONE|DICT|INTERRES
    55   27   91 1    
    56   28   29 2    
    57   28   30 1    
    58   30   31 1    
    59   30   32 1    
    60   30   92 1    
    61   31   93 1    
    62   31   94 1    
    63   31   95 1    
    64   32   33 am   BACKBONE|DICT|INTERRES
    65   32   96 1    
    66   33   34 2    
    67   33   35 1    
    68   35   36 1    
    69   35   37 1    
    70   35   97 1    
    71   36   98 1    
    72   36   99 1    
    73   36  100 1    
    74   37   38 am   BACKBONE|DICT|INTERRES
    75   37  101 1    
    76   38   39 2    
    77   38   40 1    
    78   40   41 1    
    79   40   42 1    
    80   40  102 1    
    81   41  103 1    
    82   41  104 1    
    83   41  105 1    
    84   42   43 am   BACKBONE|DICT|INTERRES
    85   42  106 1    
    86   43   44 2    
    87   43   45 1    
    88   45   46 1    
    89   45   49 1    
    90   45  107 1    
    91   46   47 1    
    92   46  108 1    
    93   46  109 1    
    94   47   48 1    
    95   48  110 1    
    96   48  111 1    
    97   49   50 am   BACKBONE|DICT|INTERRES
    98   49  112 1    
    99   50   51 2    
   100   50   52 1    
   101   52   53 1    
   102   52   54 1    
   103   52  113 1    
   104   53  114 1    
   105   53  115 1    
   106   53  116 1    
   107   54   55 am   BACKBONE|DICT|INTERRES
   108   54  117 1    
   109   55   56 2    
   110   55   57 1    
   111   57   58 1    
   112   57   59 1    
   113   57  118 1    
   114   58  119 1    
   115   58  120 1    
   116   58  121 1    
   117   59   60 am   BACKBONE|DICT|INTERRES
   118   59  122 1    
   119   60   61 2    
   120   60   62 1    
   121   62   63 1    
   122   62   64 1    
   123   62  123 1    
   124   63  124 1    
   125   63  125 1    
   126   63  126 1    
   127   64   65 am   BACKBONE|DICT|INTERRES
   128   64  127 1    
   129   65   66 2    
@<TRIPOS>SUBSTRUCTURE
     1 UNK         1 GROUP             0       ****    0 ROOT    
