@<TRIPOS>MOLECULE
3R134
127   129    1
SMALL
USER_CHARGES


@<TRIPOS>ATOM
      1 CA         32.8358  -46.1422  -50.7384 C.3       0 UNK        -0.1968 
      2 C          34.1459  -45.8123  -51.4393 C.2       0 UNK         0.4852 
      3 O          34.9001  -44.9650  -50.9584 O.2       0 UNK        -0.5359 
      4 N          34.4084  -46.4759  -52.5695 N.am      1 UNK        -0.4300 
      5 CA         35.6148  -46.3410  -53.3891 C.3       1 UNK         0.0863 
      6 C6         35.2769  -45.9440  -54.8571 C.3       11 UNK        -0.0953 
      7 S7         34.2473  -44.4446  -54.9749 S.3       11 UNK        -0.2369 
      8 C8         32.6226  -45.2019  -55.2896 C.3       11 UNK         0.0226 
      9 C9         31.4976  -44.2316  -54.9807 C.ar      11 UNK        -0.0699 
     10 C10        30.9926  -44.1419  -53.6820 C.ar      11 UNK        -0.0804 
     11 C11        29.9418  -43.2680  -53.3822 C.ar      11 UNK        -0.0871 
     12 C12        29.4079  -42.4693  -54.3997 C.ar      11 UNK        -0.1008 
     13 C13        29.9222  -42.5342  -55.6992 C.ar      11 UNK        -0.0735 
     14 C14        30.9639  -43.4216  -55.9846 C.ar      11 UNK        -0.0945 
     15 C15        29.3867  -41.6196  -56.7908 C.3       11 UNK         0.0169 
     16 S16        28.5375  -42.5490  -58.1018 S.3       11 UNK        -0.2669 
     17 C17        26.9782  -43.0075  -57.2651 C.3       11 UNK        -0.0850 
     18 CA         25.8677  -43.4392  -58.2591 C.3       10 UNK         0.0855 
     19 C          25.2853  -42.2299  -59.0511 C.2       10 UNK         0.5543 
     20 N          25.4111  -42.1736  -60.3715 N.am      10 UNK        -0.7343 
     21 O          24.6984  -41.3319  -58.4522 O.2       10 UNK        -0.5027 
     22 N          26.3163  -44.5828  -59.0667 N.am      10 UNK        -0.4495 
     23 C          25.5364  -45.4053  -59.7776 C.2       10 UNK         0.4903 
     24 O          24.3156  -45.2851  -59.8816 O.2       10 UNK        -0.4860 
     25 CA         26.2462  -46.5781  -60.4806 C.3       9 UNK         0.0227 
     26 CB         26.6684  -46.1751  -61.9030 C.3       9 UNK        -0.1964 
     27 N          27.4151  -47.0824  -59.7457 N.am      9 UNK        -0.4231 
     28 C          27.3574  -47.6585  -58.5362 C.2       9 UNK         0.5014 
     29 O          26.3066  -47.8301  -57.9134 O.2       9 UNK        -0.5270 
     30 CA         28.7033  -48.0832  -57.9151 C.3       8 UNK         0.0284 
     31 CB         29.3934  -46.8786  -57.2485 C.3       8 UNK        -0.1977 
     32 N          28.5290  -49.1350  -56.9123 N.am      8 UNK        -0.4342 
     33 C          28.0810  -50.3749  -57.1557 C.2       8 UNK         0.5039 
     34 O          27.9379  -50.8460  -58.2853 O.2       8 UNK        -0.5547 
     35 CA         27.6987  -51.2218  -55.9312 C.3       7 UNK         0.0281 
     36 CB         28.9153  -51.9850  -55.3845 C.3       7 UNK        -0.1963 
     37 N          27.1195  -50.3897  -54.8728 N.am      7 UNK        -0.4444 
     38 C          25.8259  -50.0422  -54.8061 C.2       7 UNK         0.5104 
     39 O          24.9645  -50.4689  -55.5758 O.2       7 UNK        -0.5100 
     40 CA         25.4032  -49.0787  -53.6800 C.3       6 UNK         0.0396 
     41 CB         24.7336  -49.8587  -52.5368 C.3       6 UNK        -0.1801 
     42 N          26.5178  -48.3010  -53.1333 N.am      6 UNK        -0.4747 
     43 C          27.0198  -47.1840  -53.6823 C.2       6 UNK         0.5012 
     44 O          26.5542  -46.6417  -54.6830 O.2       6 UNK        -0.5003 
     45 CA         28.2653  -46.5766  -52.9997 C.3       5 UNK         0.0782 
     46 C46        27.8265  -45.4807  -51.9955 C.3       11 UNK        -0.0868 
     47 S47        29.2196  -44.7285  -51.0897 S.3       11 UNK        -0.2515 
     48 C48        29.4159  -43.1344  -51.9555 C.3       11 UNK         0.0199 
     49 N          29.1328  -47.5904  -52.3776 N.am      5 UNK        -0.4607 
     50 C          29.7235  -48.6020  -53.0255 C.2       4 UNK         0.5031 
     51 O          29.5641  -48.8243  -54.2271 O.2       4 UNK        -0.5119 
     52 CA         30.5461  -49.5749  -52.1632 C.3       4 UNK         0.0263 
     53 CB         29.6076  -50.5630  -51.4496 C.3       4 UNK        -0.1967 
     54 N          31.5273  -50.3399  -52.9382 N.am      4 UNK        -0.4237 
     55 C          32.5943  -49.8171  -53.5533 C.2       3 UNK         0.4908 
     56 O          32.8865  -48.6168  -53.5243 O.2       3 UNK        -0.5102 
     57 CA         33.4873  -50.8030  -54.3228 C.3       3 UNK         0.0241 
     58 CB         32.8534  -51.1897  -55.6700 C.3       3 UNK        -0.1971 
     59 N          34.7673  -50.1510  -54.5711 N.am      3 UNK        -0.4139 
     60 C          35.9871  -50.6582  -54.3557 C.2       2 UNK         0.5016 
     61 O          36.2006  -51.8287  -54.0377 O.2       2 UNK        -0.5319 
     62 CA         37.1747  -49.6829  -54.5085 C.3       2 UNK         0.0286 
     63 CB         37.8890  -49.9081  -55.8511 C.3       2 UNK        -0.1963 
     64 N          36.7594  -48.2768  -54.4140 N.am      2 UNK        -0.4790 
     65 C          36.3731  -47.6810  -53.2750 C.2       1 UNK         0.5024 
     66 O          36.5478  -48.1885  -52.1646 O.2       1 UNK        -0.4888 
     67 H67        33.0287  -46.7090  -49.8281 H         1 UNK         0.0892 
     68 H68        32.3129  -45.2257  -50.4660 H         1 UNK         0.0892 
     69 H69        32.1744  -46.7296  -51.3748 H         1 UNK         0.0892 
     70 H70        33.7712  -47.2114  -52.8757 H         1 UNK         0.3107 
     71 H71        36.2726  -45.5750  -52.9739 H         1 UNK         0.0773 
     72 H72        36.1941  -45.7487  -55.4155 H         1 UNK         0.0680 
     73 H73        34.7628  -46.7537  -55.3788 H         1 UNK         0.0680 
     74 H74        32.5021  -46.0977  -54.6787 H         1 UNK         0.0650 
     75 H75        32.5713  -45.5302  -56.3288 H         1 UNK         0.0650 
     76 H76        31.4242  -44.7538  -52.9032 H         1 UNK         0.1397 
     77 H77        28.6081  -41.7767  -54.1754 H         1 UNK         0.1363 
     78 H78        31.3625  -43.4753  -56.9886 H         1 UNK         0.1355 
     79 H79        30.2212  -41.0745  -57.2341 H         1 UNK         0.0707 
     80 H80        28.7139  -40.8645  -56.3812 H         1 UNK         0.0707 
     81 H81        27.1908  -43.8247  -56.5729 H         1 UNK         0.1034 
     82 H82        26.6358  -42.1779  -56.6435 H         1 UNK         0.1034 
     83 H83        25.0353  -43.8061  -57.6556 H         1 UNK         0.0482 
     84 H84        25.8913  -42.9073  -60.8662 H         1 UNK         0.3460 
     85 H85        25.0266  -41.3892  -60.8738 H         1 UNK         0.3460 
     86 H86        27.3119  -44.7460  -59.0642 H         1 UNK         0.2989 
     87 H87        25.5269  -47.3961  -60.5591 H         1 UNK         0.0559 
     88 H88        27.4127  -45.3777  -61.8957 H         1 UNK         0.0848 
     89 H89        25.8125  -45.8160  -62.4765 H         1 UNK         0.0848 
     90 H90        27.0869  -47.0212  -62.4484 H         1 UNK         0.0848 
     91 H91        28.3147  -46.9790  -60.1937 H         1 UNK         0.3144 
     92 H92        29.3484  -48.4737  -58.7048 H         1 UNK         0.0727 
     93 H93        30.3406  -47.1650  -56.7905 H         1 UNK         0.0790 
     94 H94        28.7689  -46.4374  -56.4702 H         1 UNK         0.0790 
     95 H95        29.6093  -46.0929  -57.9735 H         1 UNK         0.0790 
     96 H96        28.6841  -48.8675  -55.9450 H         1 UNK         0.3215 
     97 H97        26.9595  -51.9584  -56.2542 H         1 UNK         0.0863 
     98 H98        28.6379  -52.6269  -54.5483 H         1 UNK         0.0808 
     99 H99        29.6956  -51.3069  -55.0432 H         1 UNK         0.0808 
    100 H100       29.3513  -52.6236  -56.1539 H         1 UNK         0.0808 
    101 H101       27.7735  -49.9404  -54.2456 H         1 UNK         0.3118 
    102 H102       24.6651  -48.3903  -54.0974 H         1 UNK         0.0546 
    103 H103       23.8758  -50.4256  -52.9017 H         1 UNK         0.0828 
    104 H104       24.3678  -49.1882  -51.7591 H         1 UNK         0.0828 
    105 H105       25.4196  -50.5694  -52.0743 H         1 UNK         0.0828 
    106 H106       26.9534  -48.6565  -52.2946 H         1 UNK         0.3005 
    107 H107       28.8496  -46.1004  -53.7904 H         1 UNK         0.1257 
    108 H108       27.1438  -45.8967  -51.2518 H         1 UNK         0.0775 
    109 H109       27.2682  -44.6952  -52.5090 H         1 UNK         0.0775 
    110 H110       28.4619  -42.6049  -51.9398 H         1 UNK         0.0840 
    111 H111       30.1160  -42.5185  -51.3896 H         1 UNK         0.0840 
    112 H112       29.2981  -47.4727  -51.3882 H         1 UNK         0.2987 
    113 H113       31.0882  -48.9967  -51.4123 H         1 UNK         0.0785 
    114 H114       28.8865  -50.0412  -50.8190 H         1 UNK         0.0798 
    115 H115       30.1643  -51.2399  -50.8012 H         1 UNK         0.0798 
    116 H116       29.0422  -51.1693  -52.1589 H         1 UNK         0.0798 
    117 H117       31.3532  -51.3297  -53.0298 H         1 UNK         0.3079 
    118 H118       33.6321  -51.6956  -53.7104 H         1 UNK         0.0794 
    119 H119       32.5825  -50.3112  -56.2578 H         1 UNK         0.0786 
    120 H120       31.9494  -51.7796  -55.5235 H         1 UNK         0.0786 
    121 H121       33.5348  -51.7949  -56.2685 H         1 UNK         0.0786 
    122 H122       34.6918  -49.1615  -54.7586 H         1 UNK         0.3032 
    123 H123       37.8798  -49.8966  -53.7015 H         1 UNK         0.1094 
    124 H124       37.2308  -49.7127  -56.6986 H         1 UNK         0.0794 
    125 H125       38.7639  -49.2649  -55.9482 H         1 UNK         0.0794 
    126 H126       38.2358  -50.9388  -55.9394 H         1 UNK         0.0794 
    127 H127       36.6292  -47.7863  -55.2876 H         1 UNK         0.3016 
@<TRIPOS>BOND
     1    1    2 1    
     2    1   67 1    
     3    1   68 1    
     4    1   69 1    
     5    2    3 2    
     6    2    4 am   BACKBONE|DICT|INTERRES
     7    4    5 1    
     8    4   70 1    
     9    5    6 1    
    10    5   65 1    
    11    5   71 1    
    12    6    7 1    
    13    6   72 1    
    14    6   73 1    
    15    7    8 1    
    16    8    9 1    
    17    8   74 1    
    18    8   75 1    
    19    9   10 ar   
    20    9   14 ar   
    21   10   11 ar   
    22   10   76 1    
    23   11   12 ar   
    24   11   48 1    
    25   12   13 ar   
    26   12   77 1    
    27   13   14 ar   
    28   13   15 1    
    29   14   78 1    
    30   15   16 1    
    31   15   79 1    
    32   15   80 1    
    33   16   17 1    
    34   17   18 1    
    35   17   81 1    
    36   17   82 1    
    37   18   19 1    
    38   18   22 1    
    39   18   83 1    
    40   19   20 am   BACKBONE|DICT|INTERRES
    41   19   21 2    
    42   20   84 1    
    43   20   85 1    
    44   22   23 am   BACKBONE|DICT|INTERRES
    45   22   86 1    
    46   23   24 2    
    47   23   25 1    
    48   25   26 1    
    49   25   27 1    
    50   25   87 1    
    51   26   88 1    
    52   26   89 1    
    53   26   90 1    
    54   27   28 am   BACKBONE|DICT|INTERRES
    55   27   91 1    
    56   28   29 2    
    57   28   30 1    
    58   30   31 1    
    59   30   32 1    
    60   30   92 1    
    61   31   93 1    
    62   31   94 1    
    63   31   95 1    
    64   32   33 am   BACKBONE|DICT|INTERRES
    65   32   96 1    
    66   33   34 2    
    67   33   35 1    
    68   35   36 1    
    69   35   37 1    
    70   35   97 1    
    71   36   98 1    
    72   36   99 1    
    73   36  100 1    
    74   37   38 am   BACKBONE|DICT|INTERRES
    75   37  101 1    
    76   38   39 2    
    77   38   40 1    
    78   40   41 1    
    79   40   42 1    
    80   40  102 1    
    81   41  103 1    
    82   41  104 1    
    83   41  105 1    
    84   42   43 am   BACKBONE|DICT|INTERRES
    85   42  106 1    
    86   43   44 2    
    87   43   45 1    
    88   45   46 1    
    89   45   49 1    
    90   45  107 1    
    91   46   47 1    
    92   46  108 1    
    93   46  109 1    
    94   47   48 1    
    95   48  110 1    
    96   48  111 1    
    97   49   50 am   BACKBONE|DICT|INTERRES
    98   49  112 1    
    99   50   51 2    
   100   50   52 1    
   101   52   53 1    
   102   52   54 1    
   103   52  113 1    
   104   53  114 1    
   105   53  115 1    
   106   53  116 1    
   107   54   55 am   BACKBONE|DICT|INTERRES
   108   54  117 1    
   109   55   56 2    
   110   55   57 1    
   111   57   58 1    
   112   57   59 1    
   113   57  118 1    
   114   58  119 1    
   115   58  120 1    
   116   58  121 1    
   117   59   60 am   BACKBONE|DICT|INTERRES
   118   59  122 1    
   119   60   61 2    
   120   60   62 1    
   121   62   63 1    
   122   62   64 1    
   123   62  123 1    
   124   63  124 1    
   125   63  125 1    
   126   63  126 1    
   127   64   65 am   BACKBONE|DICT|INTERRES
   128   64  127 1    
   129   65   66 2    
@<TRIPOS>SUBSTRUCTURE
     1 UNK         1 GROUP             0       ****    0 ROOT    
