@<TRIPOS>MOLECULE
3R134
127   129    1
SMALL
USER_CHARGES


@<TRIPOS>ATOM
      1 CA         32.7397  -43.9779  -47.3628 C.3       0 UNK        -0.1968 
      2 C          33.9794  -44.4718  -48.0939 C.2       0 UNK         0.4852 
      3 O          34.9464  -44.8809  -47.4497 O.2       0 UNK        -0.5359 
      4 N          33.9587  -44.4344  -49.4332 N.am      1 UNK        -0.4300 
      5 CA         35.0499  -44.8881  -50.3049 C.3       1 UNK         0.0863 
      6 C6         34.8984  -44.3311  -51.7444 C.3       11 UNK        -0.0953 
      7 S7         33.3623  -44.8626  -52.5776 S.3       11 UNK        -0.2369 
      8 C8         33.0932  -43.4981  -53.7444 C.3       11 UNK         0.0226 
      9 C9         31.9546  -43.8424  -54.6889 C.ar      11 UNK        -0.0699 
     10 C10        32.2238  -44.4047  -55.9396 C.ar      11 UNK        -0.0804 
     11 C11        31.1792  -44.7848  -56.7878 C.ar      11 UNK        -0.0871 
     12 C12        29.8570  -44.5879  -56.3765 C.ar      11 UNK        -0.1008 
     13 C13        29.5750  -44.0012  -55.1375 C.ar      11 UNK        -0.0735 
     14 C14        30.6296  -43.6305  -54.2988 C.ar      11 UNK        -0.0945 
     15 C15        28.1364  -43.8057  -54.6765 C.3       11 UNK         0.0169 
     16 S16        27.4929  -42.1453  -55.0641 S.3       11 UNK        -0.2669 
     17 C17        27.1607  -42.2796  -56.8538 C.3       11 UNK        -0.0850 
     18 CA         25.7418  -42.8438  -57.1652 C.3       10 UNK         0.0855 
     19 C          24.6810  -41.7323  -57.3827 C.2       10 UNK         0.5543 
     20 N          24.4397  -40.9037  -56.3771 N.am      10 UNK        -0.7343 
     21 O          24.0826  -41.6063  -58.4505 O.2       10 UNK        -0.5027 
     22 N          25.7727  -43.7850  -58.2917 N.am      10 UNK        -0.4495 
     23 C          26.0852  -45.0806  -58.2015 C.2       10 UNK         0.4903 
     24 O          26.3640  -45.6477  -57.1455 O.2       10 UNK        -0.4860 
     25 CA         26.1413  -45.8570  -59.5230 C.3       9 UNK         0.0227 
     26 CB         27.4560  -45.5484  -60.2603 C.3       9 UNK        -0.1964 
     27 N          26.0867  -47.2957  -59.2684 N.am      9 UNK        -0.4231 
     28 C          25.0013  -48.0655  -59.4030 C.2       9 UNK         0.5014 
     29 O          23.9027  -47.6450  -59.7695 O.2       9 UNK        -0.5270 
     30 CA         25.1642  -49.5612  -59.0975 C.3       8 UNK         0.0284 
     31 CB         25.9514  -50.2613  -60.2192 C.3       8 UNK        -0.1977 
     32 N          25.8370  -49.7957  -57.8168 N.am      8 UNK        -0.4342 
     33 C          25.3307  -50.5241  -56.8101 C.2       8 UNK         0.5039 
     34 O          24.2072  -51.0296  -56.8322 O.2       8 UNK        -0.5547 
     35 CA         26.2185  -50.7705  -55.5733 C.3       7 UNK         0.0281 
     36 CB         26.7415  -52.2165  -55.5701 C.3       7 UNK        -0.1963 
     37 N          27.3578  -49.8579  -55.4864 N.am      7 UNK        -0.4444 
     38 C          27.2778  -48.5798  -55.0912 C.2       7 UNK         0.5104 
     39 O          26.2516  -48.0734  -54.6373 O.2       7 UNK        -0.5100 
     40 CA         28.5439  -47.7145  -55.2390 C.3       6 UNK         0.0396 
     41 CB         29.1637  -47.4128  -53.8656 C.3       6 UNK        -0.1801 
     42 N          29.5709  -48.2827  -56.1193 N.am      6 UNK        -0.4747 
     43 C          29.4289  -48.5107  -57.4353 C.2       6 UNK         0.5012 
     44 O          28.3878  -48.2893  -58.0549 O.2       6 UNK        -0.5003 
     45 CA         30.6154  -49.1515  -58.1844 C.3       5 UNK         0.0782 
     46 C46        31.3979  -48.1086  -59.0200 C.3       11 UNK        -0.0868 
     47 S47        32.4022  -46.9583  -58.0143 S.3       11 UNK        -0.2515 
     48 C48        31.4815  -45.3899  -58.1522 C.3       11 UNK         0.0199 
     49 N          31.4983  -49.9374  -57.3160 N.am      5 UNK        -0.4607 
     50 C          31.1396  -51.0364  -56.6388 C.2       4 UNK         0.5031 
     51 O          30.0132  -51.5309  -56.6921 O.2       4 UNK        -0.5119 
     52 CA         32.2037  -51.6751  -55.7285 C.3       4 UNK         0.0263 
     53 CB         32.9045  -52.8328  -56.4572 C.3       4 UNK        -0.1967 
     54 N          33.2133  -50.7305  -55.2322 N.am      4 UNK        -0.4237 
     55 C          32.9559  -49.7063  -54.4072 C.2       3 UNK         0.4908 
     56 O          31.8255  -49.4097  -54.0153 O.2       3 UNK        -0.5102 
     57 CA         34.1552  -48.8435  -53.9860 C.3       3 UNK         0.0241 
     58 CB         34.2589  -47.5968  -54.8784 C.3       3 UNK        -0.1971 
     59 N          34.0302  -48.4238  -52.5903 N.am      3 UNK        -0.4139 
     60 C          34.2438  -49.2197  -51.5327 C.2       2 UNK         0.5016 
     61 O          34.6284  -50.3871  -51.6307 O.2       2 UNK        -0.5319 
     62 CA         33.9784  -48.6176  -50.1349 C.3       2 UNK         0.0286 
     63 CB         34.8170  -49.2887  -49.0257 C.3       2 UNK        -0.1963 
     64 N          34.1154  -47.1546  -50.0826 N.am      2 UNK        -0.4790 
     65 C          35.2202  -46.4246  -50.3150 C.2       1 UNK         0.5024 
     66 O          36.3277  -46.9056  -50.5578 O.2       1 UNK        -0.4888 
     67 H67        31.9650  -43.6429  -48.0524 H         1 UNK         0.0892 
     68 H68        32.3242  -44.7757  -46.7478 H         1 UNK         0.0892 
     69 H69        32.9965  -43.1434  -46.7108 H         1 UNK         0.0892 
     70 H70        33.1411  -44.0824  -49.9117 H         1 UNK         0.3107 
     71 H71        35.9780  -44.4802  -49.8979 H         1 UNK         0.0773 
     72 H72        35.7478  -44.6278  -52.3628 H         1 UNK         0.0680 
     73 H73        34.9225  -43.2406  -51.7128 H         1 UNK         0.0680 
     74 H74        34.0104  -43.3108  -54.3051 H         1 UNK         0.0650 
     75 H75        32.8665  -42.5834  -53.1946 H         1 UNK         0.0650 
     76 H76        33.2479  -44.5695  -56.2461 H         1 UNK         0.1397 
     77 H77        29.0442  -44.8978  -57.0186 H         1 UNK         0.1363 
     78 H78        30.4189  -43.1974  -53.3305 H         1 UNK         0.1355 
     79 H79        27.4848  -44.5621  -55.1116 H         1 UNK         0.0707 
     80 H80        28.0797  -43.9550  -53.5973 H         1 UNK         0.0707 
     81 H81        27.3054  -41.2977  -57.3086 H         1 UNK         0.1034 
     82 H82        27.9349  -42.8995  -57.3019 H         1 UNK         0.1034 
     83 H83        25.3816  -43.4091  -56.3029 H         1 UNK         0.0482 
     84 H84        24.9434  -40.9924  -55.5074 H         1 UNK         0.3460 
     85 H85        23.7574  -40.1707  -56.4928 H         1 UNK         0.3460 
     86 H86        25.4959  -43.3901  -59.1809 H         1 UNK         0.2989 
     87 H87        25.3031  -45.5466  -60.1504 H         1 UNK         0.0559 
     88 H88        28.3253  -45.8302  -59.6652 H         1 UNK         0.0848 
     89 H89        27.5448  -44.4852  -60.4865 H         1 UNK         0.0848 
     90 H90        27.5131  -46.0852  -61.2074 H         1 UNK         0.0848 
     91 H91        26.9372  -47.6972  -58.8768 H         1 UNK         0.3144 
     92 H92        24.1597  -49.9894  -59.0829 H         1 UNK         0.0727 
     93 H93        25.9863  -51.3394  -60.0615 H         1 UNK         0.0790 
     94 H94        26.9788  -49.9000  -60.2818 H         1 UNK         0.0790 
     95 H95        25.4842  -50.0913  -61.1902 H         1 UNK         0.0790 
     96 H96        26.7527  -49.3739  -57.7013 H         1 UNK         0.3215 
     97 H97        25.5927  -50.6326  -54.6887 H         1 UNK         0.0863 
     98 H98        27.3337  -52.4238  -54.6786 H         1 UNK         0.0808 
     99 H99        27.3643  -52.4221  -56.4417 H         1 UNK         0.0808 
    100 H100       25.9168  -52.9306  -55.5836 H         1 UNK         0.0808 
    101 H101       28.2473  -50.2029  -55.8259 H         1 UNK         0.3118 
    102 H102       28.2281  -46.7714  -55.6816 H         1 UNK         0.0546 
    103 H103       28.4540  -46.8877  -53.2253 H         1 UNK         0.0828 
    104 H104       30.0467  -46.7794  -53.9572 H         1 UNK         0.0828 
    105 H105       29.4575  -48.3260  -53.3474 H         1 UNK         0.0828 
    106 H106       30.4496  -48.5290  -55.6797 H         1 UNK         0.3005 
    107 H107       30.1676  -49.8570  -58.8885 H         1 UNK         0.1257 
    108 H108       30.7268  -47.5584  -59.6820 H         1 UNK         0.0775 
    109 H109       32.0837  -48.6323  -59.6877 H         1 UNK         0.0775 
    110 H110       32.0766  -44.6830  -58.7318 H         1 UNK         0.0840 
    111 H111       30.5576  -45.5356  -58.7117 H         1 UNK         0.0840 
    112 H112       32.4372  -49.5837  -57.2051 H         1 UNK         0.2987 
    113 H113       31.6802  -52.0844  -54.8617 H         1 UNK         0.0785 
    114 H114       32.1787  -53.5650  -56.8145 H         1 UNK         0.0798 
    115 H115       33.5932  -53.3598  -55.7965 H         1 UNK         0.0798 
    116 H116       33.4682  -52.4838  -57.3234 H         1 UNK         0.0798 
    117 H117       34.1679  -50.8992  -55.5167 H         1 UNK         0.3079 
    118 H118       35.0739  -49.4248  -54.0902 H         1 UNK         0.0794 
    119 H119       33.3379  -47.0115  -54.8624 H         1 UNK         0.0786 
    120 H120       34.4506  -47.8743  -55.9153 H         1 UNK         0.0786 
    121 H121       35.0743  -46.9457  -54.5626 H         1 UNK         0.0786 
    122 H122       33.6858  -47.4881  -52.4278 H         1 UNK         0.3032 
    123 H123       32.9293  -48.8308  -49.9224 H         1 UNK         0.1094 
    124 H124       35.8871  -49.1939  -49.2122 H         1 UNK         0.0794 
    125 H125       34.6063  -48.8519  -48.0495 H         1 UNK         0.0794 
    126 H126       34.5942  -50.3542  -48.9565 H         1 UNK         0.0794 
    127 H127       33.2616  -46.6441  -49.9036 H         1 UNK         0.3016 
@<TRIPOS>BOND
     1    1    2 1    
     2    1   67 1    
     3    1   68 1    
     4    1   69 1    
     5    2    3 2    
     6    2    4 am   BACKBONE|DICT|INTERRES
     7    4    5 1    
     8    4   70 1    
     9    5    6 1    
    10    5   65 1    
    11    5   71 1    
    12    6    7 1    
    13    6   72 1    
    14    6   73 1    
    15    7    8 1    
    16    8    9 1    
    17    8   74 1    
    18    8   75 1    
    19    9   10 ar   
    20    9   14 ar   
    21   10   11 ar   
    22   10   76 1    
    23   11   12 ar   
    24   11   48 1    
    25   12   13 ar   
    26   12   77 1    
    27   13   14 ar   
    28   13   15 1    
    29   14   78 1    
    30   15   16 1    
    31   15   79 1    
    32   15   80 1    
    33   16   17 1    
    34   17   18 1    
    35   17   81 1    
    36   17   82 1    
    37   18   19 1    
    38   18   22 1    
    39   18   83 1    
    40   19   20 am   BACKBONE|DICT|INTERRES
    41   19   21 2    
    42   20   84 1    
    43   20   85 1    
    44   22   23 am   BACKBONE|DICT|INTERRES
    45   22   86 1    
    46   23   24 2    
    47   23   25 1    
    48   25   26 1    
    49   25   27 1    
    50   25   87 1    
    51   26   88 1    
    52   26   89 1    
    53   26   90 1    
    54   27   28 am   BACKBONE|DICT|INTERRES
    55   27   91 1    
    56   28   29 2    
    57   28   30 1    
    58   30   31 1    
    59   30   32 1    
    60   30   92 1    
    61   31   93 1    
    62   31   94 1    
    63   31   95 1    
    64   32   33 am   BACKBONE|DICT|INTERRES
    65   32   96 1    
    66   33   34 2    
    67   33   35 1    
    68   35   36 1    
    69   35   37 1    
    70   35   97 1    
    71   36   98 1    
    72   36   99 1    
    73   36  100 1    
    74   37   38 am   BACKBONE|DICT|INTERRES
    75   37  101 1    
    76   38   39 2    
    77   38   40 1    
    78   40   41 1    
    79   40   42 1    
    80   40  102 1    
    81   41  103 1    
    82   41  104 1    
    83   41  105 1    
    84   42   43 am   BACKBONE|DICT|INTERRES
    85   42  106 1    
    86   43   44 2    
    87   43   45 1    
    88   45   46 1    
    89   45   49 1    
    90   45  107 1    
    91   46   47 1    
    92   46  108 1    
    93   46  109 1    
    94   47   48 1    
    95   48  110 1    
    96   48  111 1    
    97   49   50 am   BACKBONE|DICT|INTERRES
    98   49  112 1    
    99   50   51 2    
   100   50   52 1    
   101   52   53 1    
   102   52   54 1    
   103   52  113 1    
   104   53  114 1    
   105   53  115 1    
   106   53  116 1    
   107   54   55 am   BACKBONE|DICT|INTERRES
   108   54  117 1    
   109   55   56 2    
   110   55   57 1    
   111   57   58 1    
   112   57   59 1    
   113   57  118 1    
   114   58  119 1    
   115   58  120 1    
   116   58  121 1    
   117   59   60 am   BACKBONE|DICT|INTERRES
   118   59  122 1    
   119   60   61 2    
   120   60   62 1    
   121   62   63 1    
   122   62   64 1    
   123   62  123 1    
   124   63  124 1    
   125   63  125 1    
   126   63  126 1    
   127   64   65 am   BACKBONE|DICT|INTERRES
   128   64  127 1    
   129   65   66 2    
@<TRIPOS>SUBSTRUCTURE
     1 UNK         1 GROUP             0       ****    0 ROOT    
