@<TRIPOS>MOLECULE
3R134
127   129    1
SMALL
USER_CHARGES


@<TRIPOS>ATOM
      1 CA         38.0459  -44.4422  -51.7440 C.3       0 UNK        -0.1968 
      2 C          37.0516  -44.7622  -52.8506 C.2       0 UNK         0.4852 
      3 O          37.4628  -45.0726  -53.9695 O.2       0 UNK        -0.5359 
      4 N          35.7488  -44.6855  -52.5463 N.am      1 UNK        -0.4300 
      5 CA         34.6472  -44.9587  -53.4800 C.3       1 UNK         0.0863 
      6 C6         33.2883  -44.4613  -52.9342 C.3       11 UNK        -0.0953 
      7 S7         33.2819  -42.6937  -52.4791 S.3       11 UNK        -0.2369 
      8 C8         32.2163  -41.9704  -53.7759 C.3       11 UNK         0.0226 
      9 C9         30.7477  -42.4094  -53.7784 C.ar      11 UNK        -0.0699 
     10 C10        30.1630  -43.1477  -52.7383 C.ar      11 UNK        -0.0804 
     11 C11        28.8277  -43.5647  -52.8138 C.ar      11 UNK        -0.0871 
     12 C12        28.0590  -43.1845  -53.9158 C.ar      11 UNK        -0.1008 
     13 C13        28.6140  -42.4220  -54.9442 C.ar      11 UNK        -0.0735 
     14 C14        29.9581  -42.0474  -54.8745 C.ar      11 UNK        -0.0945 
     15 C15        27.7518  -42.0045  -56.1249 C.3       11 UNK         0.0169 
     16 S16        27.4547  -43.3965  -57.2551 S.3       11 UNK        -0.2669 
     17 C17        29.1147  -43.6182  -57.9811 C.3       11 UNK        -0.0850 
     18 CA         29.0484  -44.3385  -59.3497 C.3       10 UNK         0.0855 
     19 C          30.4433  -44.3598  -60.0331 C.2       10 UNK         0.5543 
     20 N          30.7830  -43.3135  -60.7733 N.am      10 UNK        -0.7343 
     21 O          31.2319  -45.2872  -59.8658 O.2       10 UNK        -0.5027 
     22 N          28.4505  -45.6716  -59.2036 N.am      10 UNK        -0.4495 
     23 C          28.0696  -46.4716  -60.2061 C.2       10 UNK         0.4903 
     24 O          28.1653  -46.1776  -61.3981 O.2       10 UNK        -0.4860 
     25 CA         27.4606  -47.8283  -59.8163 C.3       9 UNK         0.0227 
     26 CB         28.5025  -48.9484  -59.9665 C.3       9 UNK        -0.1964 
     27 N          26.9391  -47.8361  -58.4473 N.am      9 UNK        -0.4231 
     28 C          25.7213  -47.4135  -58.0813 C.2       9 UNK         0.5014 
     29 O          24.8887  -46.9552  -58.8665 O.2       9 UNK        -0.5270 
     30 CA         25.3868  -47.5540  -56.5809 C.3       8 UNK         0.0284 
     31 CB         23.8864  -47.3734  -56.2685 C.3       8 UNK        -0.1977 
     32 N          25.8993  -48.8109  -56.0168 N.am      8 UNK        -0.4342 
     33 C          25.5935  -50.0616  -56.3990 C.2       8 UNK         0.5039 
     34 O          24.7193  -50.3387  -57.2211 O.2       8 UNK        -0.5547 
     35 CA         26.4304  -51.2069  -55.8001 C.3       7 UNK         0.0281 
     36 CB         27.4466  -51.7151  -56.8368 C.3       7 UNK        -0.1963 
     37 N          27.1482  -50.8358  -54.5787 N.am      7 UNK        -0.4444 
     38 C          26.5766  -50.6872  -53.3766 C.2       7 UNK         0.5104 
     39 O          25.3795  -50.8724  -53.1560 O.2       7 UNK        -0.5100 
     40 CA         27.4972  -50.2346  -52.2318 C.3       6 UNK         0.0396 
     41 CB         28.2741  -51.4283  -51.6537 C.3       6 UNK        -0.1801 
     42 N          28.4390  -49.1896  -52.6407 N.am      6 UNK        -0.4747 
     43 C          28.0953  -47.9370  -52.9768 C.2       6 UNK         0.5012 
     44 O          26.9347  -47.5285  -53.0074 O.2       6 UNK        -0.5003 
     45 CA         29.2465  -46.9994  -53.3871 C.3       5 UNK         0.0782 
     46 C46        30.0936  -46.5554  -52.1674 C.3       11 UNK        -0.0868 
     47 S47        29.2841  -45.5713  -50.8538 S.3       11 UNK        -0.2515 
     48 C48        28.1715  -44.4108  -51.7234 C.3       11 UNK         0.0199 
     49 N          30.0981  -47.6420  -54.3910 N.am      5 UNK        -0.4607 
     50 C          29.7313  -47.9110  -55.6526 C.2       4 UNK         0.5031 
     51 O          28.6632  -47.5557  -56.1493 O.2       4 UNK        -0.5119 
     52 CA         30.6943  -48.7506  -56.5096 C.3       4 UNK         0.0263 
     53 CB         31.5365  -47.8389  -57.4125 C.3       4 UNK        -0.1967 
     54 N          31.5756  -49.6209  -55.7287 N.am      4 UNK        -0.4237 
     55 C          31.1575  -50.6176  -54.9344 C.2       3 UNK         0.4908 
     56 O          29.9769  -50.9483  -54.8239 O.2       3 UNK        -0.5102 
     57 CA         32.2144  -51.3423  -54.0826 C.3       3 UNK         0.0241 
     58 CB         32.5729  -52.6949  -54.7181 C.3       3 UNK        -0.1971 
     59 N          33.4449  -50.5779  -53.8415 N.am      3 UNK        -0.4139 
     60 C          33.5222  -49.3890  -53.2253 C.2       2 UNK         0.5016 
     61 O          32.5336  -48.7715  -52.8195 O.2       2 UNK        -0.5319 
     62 CA         34.9358  -48.8023  -53.0199 C.3       2 UNK         0.0286 
     63 CB         35.9615  -49.2684  -54.0794 C.3       2 UNK        -0.1963 
     64 N          34.9384  -47.3371  -52.9202 N.am      2 UNK        -0.4790 
     65 C          34.5423  -46.4546  -53.8525 C.2       1 UNK         0.5024 
     66 O          34.1116  -46.7706  -54.9625 O.2       1 UNK        -0.4888 
     67 H67        38.6787  -43.6056  -52.0391 H         1 UNK         0.0892 
     68 H68        37.5479  -44.1774  -50.8113 H         1 UNK         0.0892 
     69 H69        38.6857  -45.3036  -51.5542 H         1 UNK         0.0892 
     70 H70        35.4705  -44.3931  -51.6201 H         1 UNK         0.3107 
     71 H71        34.8567  -44.4146  -54.4037 H         1 UNK         0.0773 
     72 H72        32.5044  -44.6422  -53.6720 H         1 UNK         0.0680 
     73 H73        33.0095  -45.0261  -52.0426 H         1 UNK         0.0680 
     74 H74        32.2484  -40.8853  -53.6702 H         1 UNK         0.0650 
     75 H75        32.6614  -42.1991  -54.7456 H         1 UNK         0.0650 
     76 H76        30.7465  -43.4183  -51.8711 H         1 UNK         0.1397 
     77 H77        27.0216  -43.4848  -53.9805 H         1 UNK         0.1363 
     78 H78        30.3922  -41.4665  -55.6771 H         1 UNK         0.1355 
     79 H79        28.2056  -41.1753  -56.6700 H         1 UNK         0.0707 
     80 H80        26.7917  -41.6380  -55.7585 H         1 UNK         0.0707 
     81 H81        29.5798  -42.6368  -58.0928 H         1 UNK         0.1034 
     82 H82        29.7372  -44.1749  -57.2773 H         1 UNK         0.1034 
     83 H83        28.3801  -43.7671  -59.9975 H         1 UNK         0.0482 
     84 H84        30.1478  -42.5430  -60.9132 H         1 UNK         0.3460 
     85 H85        31.6897  -43.3002  -61.2135 H         1 UNK         0.3460 
     86 H86        28.3286  -45.9968  -58.2558 H         1 UNK         0.2989 
     87 H87        26.6402  -48.0359  -60.5065 H         1 UNK         0.0559 
     88 H88        29.3805  -48.7715  -59.3462 H         1 UNK         0.0848 
     89 H89        28.8473  -49.0201  -60.9989 H         1 UNK         0.0848 
     90 H90        28.0866  -49.9194  -59.6969 H         1 UNK         0.0848 
     91 H91        27.5775  -48.1033  -57.7046 H         1 UNK         0.3144 
     92 H92        25.9263  -46.7519  -56.0742 H         1 UNK         0.0727 
     93 H93        23.5411  -46.3854  -56.5753 H         1 UNK         0.0790 
     94 H94        23.6912  -47.4676  -55.2003 H         1 UNK         0.0790 
     95 H95        23.2716  -48.1082  -56.7890 H         1 UNK         0.0790 
     96 H96        26.6434  -48.7013  -55.3404 H         1 UNK         0.3215 
     97 H97        25.7453  -52.0237  -55.5627 H         1 UNK         0.0863 
     98 H98        28.0132  -52.5643  -56.4543 H         1 UNK         0.0808 
     99 H99        28.1582  -50.9383  -57.1175 H         1 UNK         0.0808 
    100 H100       26.9457  -52.0436  -57.7486 H         1 UNK         0.0808 
    101 H101       28.1601  -50.7352  -54.6520 H         1 UNK         0.3118 
    102 H102       26.8667  -49.8251  -51.4397 H         1 UNK         0.0546 
    103 H103       28.9439  -51.8733  -52.3906 H         1 UNK         0.0828 
    104 H104       27.5920  -52.2114  -51.3199 H         1 UNK         0.0828 
    105 H105       28.8722  -51.1330  -50.7915 H         1 UNK         0.0828 
    106 H106       29.4132  -49.4513  -52.6922 H         1 UNK         0.3005 
    107 H107       28.8050  -46.1197  -53.8583 H         1 UNK         0.1257 
    108 H108       30.9332  -45.9648  -52.5263 H         1 UNK         0.0775 
    109 H109       30.5431  -47.4242  -51.6837 H         1 UNK         0.0775 
    110 H110       27.3365  -44.9790  -52.1355 H         1 UNK         0.0840 
    111 H111       27.7383  -43.7363  -50.9840 H         1 UNK         0.0840 
    112 H112       30.9951  -47.9829  -54.0615 H         1 UNK         0.2987 
    113 H113       30.0839  -49.3943  -57.1447 H         1 UNK         0.0785 
    114 H114       32.1881  -47.1844  -56.8328 H         1 UNK         0.0798 
    115 H115       30.8976  -47.1998  -58.0225 H         1 UNK         0.0798 
    116 H116       32.1594  -48.4169  -58.0952 H         1 UNK         0.0798 
    117 H117       32.5611  -49.4013  -55.7438 H         1 UNK         0.3079 
    118 H118       31.7570  -51.5336  -53.1097 H         1 UNK         0.0794 
    119 H119       31.6787  -53.2979  -54.8844 H         1 UNK         0.0786 
    120 H120       33.2348  -53.2744  -54.0742 H         1 UNK         0.0786 
    121 H121       33.0654  -52.5699  -55.6834 H         1 UNK         0.0786 
    122 H122       34.3056  -51.0100  -54.1455 H         1 UNK         0.3032 
    123 H123       35.2707  -49.1715  -52.0491 H         1 UNK         0.1094 
    124 H124       36.9231  -48.7747  -53.9368 H         1 UNK         0.0794 
    125 H125       36.1495  -50.3406  -54.0145 H         1 UNK         0.0794 
    126 H126       35.6283  -49.0491  -55.0947 H         1 UNK         0.0794 
    127 H127       35.2434  -46.9635  -52.0326 H         1 UNK         0.3016 
@<TRIPOS>BOND
     1    1    2 1    
     2    1   67 1    
     3    1   68 1    
     4    1   69 1    
     5    2    3 2    
     6    2    4 am   BACKBONE|DICT|INTERRES
     7    4    5 1    
     8    4   70 1    
     9    5    6 1    
    10    5   65 1    
    11    5   71 1    
    12    6    7 1    
    13    6   72 1    
    14    6   73 1    
    15    7    8 1    
    16    8    9 1    
    17    8   74 1    
    18    8   75 1    
    19    9   10 ar   
    20    9   14 ar   
    21   10   11 ar   
    22   10   76 1    
    23   11   12 ar   
    24   11   48 1    
    25   12   13 ar   
    26   12   77 1    
    27   13   14 ar   
    28   13   15 1    
    29   14   78 1    
    30   15   16 1    
    31   15   79 1    
    32   15   80 1    
    33   16   17 1    
    34   17   18 1    
    35   17   81 1    
    36   17   82 1    
    37   18   19 1    
    38   18   22 1    
    39   18   83 1    
    40   19   20 am   BACKBONE|DICT|INTERRES
    41   19   21 2    
    42   20   84 1    
    43   20   85 1    
    44   22   23 am   BACKBONE|DICT|INTERRES
    45   22   86 1    
    46   23   24 2    
    47   23   25 1    
    48   25   26 1    
    49   25   27 1    
    50   25   87 1    
    51   26   88 1    
    52   26   89 1    
    53   26   90 1    
    54   27   28 am   BACKBONE|DICT|INTERRES
    55   27   91 1    
    56   28   29 2    
    57   28   30 1    
    58   30   31 1    
    59   30   32 1    
    60   30   92 1    
    61   31   93 1    
    62   31   94 1    
    63   31   95 1    
    64   32   33 am   BACKBONE|DICT|INTERRES
    65   32   96 1    
    66   33   34 2    
    67   33   35 1    
    68   35   36 1    
    69   35   37 1    
    70   35   97 1    
    71   36   98 1    
    72   36   99 1    
    73   36  100 1    
    74   37   38 am   BACKBONE|DICT|INTERRES
    75   37  101 1    
    76   38   39 2    
    77   38   40 1    
    78   40   41 1    
    79   40   42 1    
    80   40  102 1    
    81   41  103 1    
    82   41  104 1    
    83   41  105 1    
    84   42   43 am   BACKBONE|DICT|INTERRES
    85   42  106 1    
    86   43   44 2    
    87   43   45 1    
    88   45   46 1    
    89   45   49 1    
    90   45  107 1    
    91   46   47 1    
    92   46  108 1    
    93   46  109 1    
    94   47   48 1    
    95   48  110 1    
    96   48  111 1    
    97   49   50 am   BACKBONE|DICT|INTERRES
    98   49  112 1    
    99   50   51 2    
   100   50   52 1    
   101   52   53 1    
   102   52   54 1    
   103   52  113 1    
   104   53  114 1    
   105   53  115 1    
   106   53  116 1    
   107   54   55 am   BACKBONE|DICT|INTERRES
   108   54  117 1    
   109   55   56 2    
   110   55   57 1    
   111   57   58 1    
   112   57   59 1    
   113   57  118 1    
   114   58  119 1    
   115   58  120 1    
   116   58  121 1    
   117   59   60 am   BACKBONE|DICT|INTERRES
   118   59  122 1    
   119   60   61 2    
   120   60   62 1    
   121   62   63 1    
   122   62   64 1    
   123   62  123 1    
   124   63  124 1    
   125   63  125 1    
   126   63  126 1    
   127   64   65 am   BACKBONE|DICT|INTERRES
   128   64  127 1    
   129   65   66 2    
@<TRIPOS>SUBSTRUCTURE
     1 UNK         1 GROUP             0       ****    0 ROOT    
