@<TRIPOS>MOLECULE
3R134
127   129    1
SMALL
USER_CHARGES


@<TRIPOS>ATOM
      1 CA         32.5198  -50.3214  -57.8334 C.3       0 UNK        -0.1968 
      2 C          32.7088  -49.5867  -56.5159 C.2       0 UNK         0.4852 
      3 O          32.6739  -50.2201  -55.4610 O.2       0 UNK        -0.5359 
      4 N          32.9397  -48.2656  -56.5706 N.am      1 UNK        -0.4300 
      5 CA         33.0672  -47.3487  -55.4248 C.3       1 UNK         0.0863 
      6 C6         33.3478  -45.8953  -55.8759 C.3       11 UNK        -0.0953 
      7 S7         32.0485  -45.2249  -56.9647 S.3       11 UNK        -0.2369 
      8 C8         32.3778  -43.4356  -56.8439 C.3       11 UNK         0.0226 
      9 C9         31.3703  -42.7130  -55.9572 C.ar      11 UNK        -0.0699 
     10 C10        31.2759  -43.0117  -54.5943 C.ar      11 UNK        -0.0804 
     11 C11        30.3454  -42.3552  -53.7801 C.ar      11 UNK        -0.0871 
     12 C12        29.5323  -41.3630  -54.3363 C.ar      11 UNK        -0.1008 
     13 C13        29.6299  -41.0380  -55.6922 C.ar      11 UNK        -0.0735 
     14 C14        30.5446  -41.7220  -56.4981 C.ar      11 UNK        -0.0945 
     15 C15        28.7613  -39.9356  -56.2836 C.3       11 UNK         0.0169 
     16 S16        27.3905  -40.5947  -57.2847 S.3       11 UNK        -0.2669 
     17 C17        26.3704  -41.4314  -56.0208 C.3       11 UNK        -0.0850 
     18 CA         26.6179  -42.9648  -55.9484 C.3       10 UNK         0.0855 
     19 C          25.8452  -43.6201  -54.7676 C.2       10 UNK         0.5543 
     20 N          25.2171  -44.7763  -54.9434 N.am      10 UNK        -0.7343 
     21 O          25.8215  -43.0775  -53.6659 O.2       10 UNK        -0.5027 
     22 N          26.3575  -43.6236  -57.2407 N.am      10 UNK        -0.4495 
     23 C          27.2939  -44.1726  -58.0204 C.2       10 UNK         0.4903 
     24 O          28.5023  -44.1592  -57.7814 O.2       10 UNK        -0.4860 
     25 CA         26.8008  -44.8370  -59.3153 C.3       9 UNK         0.0227 
     26 CB         27.0422  -43.9175  -60.5240 C.3       9 UNK        -0.1964 
     27 N          27.5165  -46.0971  -59.5088 N.am      9 UNK        -0.4231 
     28 C          27.2521  -47.2117  -58.8168 C.2       9 UNK         0.5014 
     29 O          26.2337  -47.3610  -58.1367 O.2       9 UNK        -0.5270 
     30 CA         28.2914  -48.3425  -58.8890 C.3       8 UNK         0.0284 
     31 CB         29.7377  -47.8399  -59.0641 C.3       8 UNK        -0.1977 
     32 N          28.2003  -49.1198  -57.6582 N.am      8 UNK        -0.4342 
     33 C          28.2642  -50.4520  -57.5589 C.2       8 UNK         0.5039 
     34 O          28.5035  -51.1941  -58.5129 O.2       8 UNK        -0.5547 
     35 CA         28.0176  -51.0758  -56.1708 C.3       7 UNK         0.0281 
     36 CB         29.2691  -51.8154  -55.6666 C.3       7 UNK        -0.1963 
     37 N          27.5926  -50.0877  -55.1716 N.am      7 UNK        -0.4444 
     38 C          26.3286  -49.6545  -55.0385 C.2       7 UNK         0.5104 
     39 O          25.3902  -50.1062  -55.6954 O.2       7 UNK        -0.5100 
     40 CA         26.0366  -48.5408  -54.0118 C.3       6 UNK         0.0396 
     41 CB         25.2565  -49.1079  -52.8144 C.3       6 UNK        -0.1801 
     42 N          27.2209  -47.8407  -53.5107 N.am      6 UNK        -0.4747 
     43 C          28.0059  -47.0181  -54.2230 C.2       6 UNK         0.5012 
     44 O          27.8200  -46.7523  -55.4085 O.2       6 UNK        -0.5003 
     45 CA         29.2506  -46.4674  -53.4936 C.3       5 UNK         0.0782 
     46 C46        28.9061  -45.1589  -52.7403 C.3       11 UNK        -0.0868 
     47 S47        30.3609  -44.4516  -51.8929 S.3       11 UNK        -0.2515 
     48 C48        30.2241  -42.6759  -52.2925 C.3       11 UNK         0.0199 
     49 N          29.8620  -47.4693  -52.6029 N.am      5 UNK        -0.4607 
     50 C          30.2965  -48.6735  -52.9907 C.2       4 UNK         0.5031 
     51 O          30.2009  -49.0877  -54.1446 O.2       4 UNK        -0.5119 
     52 CA         30.8577  -49.5975  -51.9107 C.3       4 UNK         0.0263 
     53 CB         29.7296  -50.4854  -51.3469 C.3       4 UNK        -0.1967 
     54 N          31.9144  -50.4122  -52.5063 N.am      4 UNK        -0.4237 
     55 C          32.7810  -51.1778  -51.8310 C.2       3 UNK         0.4908 
     56 O          32.7726  -51.3154  -50.6072 O.2       3 UNK        -0.5102 
     57 CA         33.8644  -51.8834  -52.6566 C.3       3 UNK         0.0241 
     58 CB         33.2624  -52.9762  -53.5578 C.3       3 UNK        -0.1971 
     59 N          34.5870  -50.9031  -53.4650 N.am      3 UNK        -0.4139 
     60 C          35.6575  -50.2157  -53.0409 C.2       2 UNK         0.5016 
     61 O          36.2287  -50.4300  -51.9707 O.2       2 UNK        -0.5319 
     62 CA         36.1876  -49.0913  -53.9516 C.3       2 UNK         0.0286 
     63 CB         37.3402  -49.6074  -54.8276 C.3       2 UNK        -0.1963 
     64 N          35.1602  -48.4976  -54.8112 N.am      2 UNK        -0.4790 
     65 C          34.1159  -47.7774  -54.3749 C.2       1 UNK         0.5024 
     66 O          33.9510  -47.4635  -53.1961 O.2       1 UNK        -0.4888 
     67 H67        33.2016  -51.1692  -57.8894 H         1 UNK         0.0892 
     68 H68        31.5006  -50.6999  -57.9061 H         1 UNK         0.0892 
     69 H69        32.7094  -49.6777  -58.6918 H         1 UNK         0.0892 
     70 H70        32.9593  -47.8110  -57.4720 H         1 UNK         0.3107 
     71 H71        32.1032  -47.3576  -54.9169 H         1 UNK         0.0773 
     72 H72        34.3009  -45.8346  -56.4046 H         1 UNK         0.0680 
     73 H73        33.4397  -45.2422  -55.0067 H         1 UNK         0.0680 
     74 H74        32.3570  -43.0235  -57.8538 H         1 UNK         0.0650 
     75 H75        33.3862  -43.2582  -56.4680 H         1 UNK         0.0650 
     76 H76        31.9207  -43.7661  -54.1684 H         1 UNK         0.1397 
     77 H77        28.8227  -40.8377  -53.7114 H         1 UNK         0.1363 
     78 H78        30.6096  -41.4795  -57.5499 H         1 UNK         0.1355 
     79 H79        29.3777  -39.2940  -56.9148 H         1 UNK         0.0707 
     80 H80        28.3608  -39.2919  -55.4988 H         1 UNK         0.0707 
     81 H81        26.5587  -40.9623  -55.0535 H         1 UNK         0.1034 
     82 H82        25.3215  -41.2322  -56.2466 H         1 UNK         0.1034 
     83 H83        27.6648  -43.1130  -55.6811 H         1 UNK         0.0482 
     84 H84        25.3055  -45.2779  -55.8133 H         1 UNK         0.3460 
     85 H85        24.7179  -45.1854  -54.1706 H         1 UNK         0.3460 
     86 H86        25.3877  -43.6796  -57.5165 H         1 UNK         0.2989 
     87 H87        25.7298  -45.0382  -59.2410 H         1 UNK         0.0559 
     88 H88        28.0989  -43.6747  -60.6435 H         1 UNK         0.0848 
     89 H89        26.5053  -42.9753  -60.4077 H         1 UNK         0.0848 
     90 H90        26.6952  -44.3765  -61.4496 H         1 UNK         0.0848 
     91 H91        28.3952  -46.0393  -60.0009 H         1 UNK         0.3144 
     92 H92        28.0238  -48.9664  -59.7430 H         1 UNK         0.0727 
     93 H93        29.8802  -47.3393  -60.0214 H         1 UNK         0.0790 
     94 H94        30.4431  -48.6683  -59.0367 H         1 UNK         0.0790 
     95 H95        30.0146  -47.1404  -58.2750 H         1 UNK         0.0790 
     96 H96        27.9334  -48.5815  -56.8408 H         1 UNK         0.3215 
     97 H97        27.2245  -51.8171  -56.2897 H         1 UNK         0.0863 
     98 H98        30.1392  -51.1619  -55.6319 H         1 UNK         0.0808 
     99 H99        29.5210  -52.6461  -56.3267 H         1 UNK         0.0808 
    100 H100       29.1179  -52.2274  -54.6691 H         1 UNK         0.0808 
    101 H101       28.3347  -49.6493  -54.6339 H         1 UNK         0.3118 
    102 H102       25.4040  -47.8051  -54.5125 H         1 UNK         0.0546 
    103 H103       25.8441  -49.8410  -52.2603 H         1 UNK         0.0828 
    104 H104       24.3424  -49.6050  -53.1425 H         1 UNK         0.0828 
    105 H105       24.9609  -48.3193  -52.1222 H         1 UNK         0.0828 
    106 H106       27.4744  -48.0169  -52.5493 H         1 UNK         0.3005 
    107 H107       29.9837  -46.2292  -54.2680 H         1 UNK         0.1257 
    108 H108       28.1280  -45.3310  -51.9942 H         1 UNK         0.0775 
    109 H109       28.5017  -44.4221  -53.4365 H         1 UNK         0.0775 
    110 H110       29.2751  -42.3094  -51.8973 H         1 UNK         0.0840 
    111 H111       31.0080  -42.1377  -51.7584 H         1 UNK         0.0840 
    112 H112       29.9757  -47.1891  -51.6392 H         1 UNK         0.2987 
    113 H113       31.2904  -48.9915  -51.1121 H         1 UNK         0.0785 
    114 H114       28.9165  -49.8798  -50.9449 H         1 UNK         0.0798 
    115 H115       30.0824  -51.1215  -50.5355 H         1 UNK         0.0798 
    116 H116       29.3061  -51.1314  -52.1171 H         1 UNK         0.0798 
    117 H117       31.9898  -50.3340  -53.5195 H         1 UNK         0.3079 
    118 H118       34.5566  -52.3689  -51.9651 H         1 UNK         0.0794 
    119 H119       32.7402  -53.7254  -52.9612 H         1 UNK         0.0786 
    120 H120       34.0390  -53.4943  -54.1208 H         1 UNK         0.0786 
    121 H121       32.5445  -52.5746  -54.2735 H         1 UNK         0.0786 
    122 H122       34.1319  -50.6198  -54.3297 H         1 UNK         0.3032 
    123 H123       36.5760  -48.3051  -53.3004 H         1 UNK         0.1094 
    124 H124       38.1371  -50.0297  -54.2135 H         1 UNK         0.0794 
    125 H125       37.0087  -50.3885  -55.5128 H         1 UNK         0.0794 
    126 H126       37.7810  -48.8045  -55.4187 H         1 UNK         0.0794 
    127 H127       35.2120  -48.7075  -55.7975 H         1 UNK         0.3016 
@<TRIPOS>BOND
     1    1    2 1    
     2    1   67 1    
     3    1   68 1    
     4    1   69 1    
     5    2    3 2    
     6    2    4 am   BACKBONE|DICT|INTERRES
     7    4    5 1    
     8    4   70 1    
     9    5    6 1    
    10    5   65 1    
    11    5   71 1    
    12    6    7 1    
    13    6   72 1    
    14    6   73 1    
    15    7    8 1    
    16    8    9 1    
    17    8   74 1    
    18    8   75 1    
    19    9   10 ar   
    20    9   14 ar   
    21   10   11 ar   
    22   10   76 1    
    23   11   12 ar   
    24   11   48 1    
    25   12   13 ar   
    26   12   77 1    
    27   13   14 ar   
    28   13   15 1    
    29   14   78 1    
    30   15   16 1    
    31   15   79 1    
    32   15   80 1    
    33   16   17 1    
    34   17   18 1    
    35   17   81 1    
    36   17   82 1    
    37   18   19 1    
    38   18   22 1    
    39   18   83 1    
    40   19   20 am   BACKBONE|DICT|INTERRES
    41   19   21 2    
    42   20   84 1    
    43   20   85 1    
    44   22   23 am   BACKBONE|DICT|INTERRES
    45   22   86 1    
    46   23   24 2    
    47   23   25 1    
    48   25   26 1    
    49   25   27 1    
    50   25   87 1    
    51   26   88 1    
    52   26   89 1    
    53   26   90 1    
    54   27   28 am   BACKBONE|DICT|INTERRES
    55   27   91 1    
    56   28   29 2    
    57   28   30 1    
    58   30   31 1    
    59   30   32 1    
    60   30   92 1    
    61   31   93 1    
    62   31   94 1    
    63   31   95 1    
    64   32   33 am   BACKBONE|DICT|INTERRES
    65   32   96 1    
    66   33   34 2    
    67   33   35 1    
    68   35   36 1    
    69   35   37 1    
    70   35   97 1    
    71   36   98 1    
    72   36   99 1    
    73   36  100 1    
    74   37   38 am   BACKBONE|DICT|INTERRES
    75   37  101 1    
    76   38   39 2    
    77   38   40 1    
    78   40   41 1    
    79   40   42 1    
    80   40  102 1    
    81   41  103 1    
    82   41  104 1    
    83   41  105 1    
    84   42   43 am   BACKBONE|DICT|INTERRES
    85   42  106 1    
    86   43   44 2    
    87   43   45 1    
    88   45   46 1    
    89   45   49 1    
    90   45  107 1    
    91   46   47 1    
    92   46  108 1    
    93   46  109 1    
    94   47   48 1    
    95   48  110 1    
    96   48  111 1    
    97   49   50 am   BACKBONE|DICT|INTERRES
    98   49  112 1    
    99   50   51 2    
   100   50   52 1    
   101   52   53 1    
   102   52   54 1    
   103   52  113 1    
   104   53  114 1    
   105   53  115 1    
   106   53  116 1    
   107   54   55 am   BACKBONE|DICT|INTERRES
   108   54  117 1    
   109   55   56 2    
   110   55   57 1    
   111   57   58 1    
   112   57   59 1    
   113   57  118 1    
   114   58  119 1    
   115   58  120 1    
   116   58  121 1    
   117   59   60 am   BACKBONE|DICT|INTERRES
   118   59  122 1    
   119   60   61 2    
   120   60   62 1    
   121   62   63 1    
   122   62   64 1    
   123   62  123 1    
   124   63  124 1    
   125   63  125 1    
   126   63  126 1    
   127   64   65 am   BACKBONE|DICT|INTERRES
   128   64  127 1    
   129   65   66 2    
@<TRIPOS>SUBSTRUCTURE
     1 UNK         1 GROUP             0       ****    0 ROOT    
