@<TRIPOS>MOLECULE
3R134
127   129    1
SMALL
USER_CHARGES


@<TRIPOS>ATOM
      1 CA         36.8521  -43.9389  -56.3882 C.3       0 UNK        -0.1968 
      2 C          36.0240  -44.9137  -55.5645 C.2       0 UNK         0.4852 
      3 O          35.6393  -44.5859  -54.4413 O.2       0 UNK        -0.5359 
      4 N          35.7645  -46.1115  -56.1090 N.am      1 UNK        -0.4300 
      5 CA         34.9506  -47.2144  -55.5644 C.3       1 UNK         0.0863 
      6 C6         33.4830  -46.8296  -55.2456 C.3       11 UNK        -0.0953 
      7 S7         32.5975  -46.0726  -56.6499 S.3       11 UNK        -0.2369 
      8 C8         32.1062  -44.4659  -55.9465 C.3       11 UNK         0.0226 
      9 C9         30.9723  -44.6117  -54.9404 C.ar      11 UNK        -0.0699 
     10 C10        31.2437  -44.6903  -53.5708 C.ar      11 UNK        -0.0804 
     11 C11        30.2053  -44.8372  -52.6471 C.ar      11 UNK        -0.0871 
     12 C12        28.8821  -44.8749  -53.0994 C.ar      11 UNK        -0.1008 
     13 C13        28.5975  -44.7874  -54.4652 C.ar      11 UNK        -0.0735 
     14 C14        29.6463  -44.6585  -55.3806 C.ar      11 UNK        -0.0945 
     15 C15        27.1585  -44.8216  -54.9534 C.3       11 UNK         0.0169 
     16 S16        26.5324  -43.1310  -55.2004 S.3       11 UNK        -0.2669 
     17 C17        24.7712  -43.3872  -55.6275 C.3       11 UNK        -0.0850 
     18 CA         24.4716  -44.4954  -56.6821 C.3       10 UNK         0.0855 
     19 C          22.9505  -44.6218  -57.0005 C.2       10 UNK         0.5543 
     20 N          22.5473  -44.9127  -58.2327 N.am      10 UNK        -0.7343 
     21 O          22.1175  -44.4826  -56.1080 O.2       10 UNK        -0.5027 
     22 N          25.3324  -44.4358  -57.8732 N.am      10 UNK        -0.4495 
     23 C          25.4391  -43.4172  -58.7387 C.2       10 UNK         0.4903 
     24 O          24.8717  -42.3326  -58.6064 O.2       10 UNK        -0.4860 
     25 CA         26.3130  -43.6529  -59.9872 C.3       9 UNK         0.0227 
     26 CB         27.7253  -43.0900  -59.7573 C.3       9 UNK        -0.1964 
     27 N          26.4162  -45.0623  -60.3809 N.am      9 UNK        -0.4231 
     28 C          25.3873  -45.8545  -60.7178 C.2       9 UNK         0.5014 
     29 O          24.2260  -45.4587  -60.8313 O.2       9 UNK        -0.5270 
     30 CA         25.6910  -47.3532  -60.9047 C.3       8 UNK         0.0284 
     31 CB         25.9032  -47.6740  -62.3932 C.3       8 UNK        -0.1977 
     32 N          26.8351  -47.8580  -60.1303 N.am      8 UNK        -0.4342 
     33 C          26.9748  -47.7839  -58.7987 C.2       8 UNK         0.5039 
     34 O          26.1904  -47.1885  -58.0554 O.2       8 UNK        -0.5547 
     35 CA         28.2370  -48.4339  -58.2098 C.3       7 UNK         0.0281 
     36 CB         29.4296  -47.4683  -58.3001 C.3       7 UNK        -0.1963 
     37 N          28.0418  -48.8106  -56.8095 N.am      7 UNK        -0.4444 
     38 C          27.2739  -49.8248  -56.3863 C.2       7 UNK         0.5104 
     39 O          26.6981  -50.6053  -57.1466 O.2       7 UNK        -0.5100 
     40 CA         27.1454  -50.0071  -54.8627 C.3       6 UNK         0.0396 
     41 CB         26.9539  -51.4799  -54.4522 C.3       6 UNK        -0.1801 
     42 N          28.3090  -49.4497  -54.1740 N.am      6 UNK        -0.4747 
     43 C          28.3210  -48.8788  -52.9659 C.2       6 UNK         0.5012 
     44 O          27.3205  -48.7840  -52.2528 O.2       6 UNK        -0.5003 
     45 CA         29.6861  -48.3343  -52.4815 C.3       5 UNK         0.0782 
     46 C46        29.5909  -47.6340  -51.1007 C.3       11 UNK        -0.0868 
     47 S47        31.0813  -46.6492  -50.7351 S.3       11 UNK        -0.2515 
     48 C48        30.5191  -44.9674  -51.1629 C.3       11 UNK         0.0199 
     49 N          30.7280  -49.3703  -52.4897 N.am      5 UNK        -0.4607 
     50 C          31.3351  -49.8735  -53.5702 C.2       4 UNK         0.5031 
     51 O          31.0643  -49.5185  -54.7190 O.2       4 UNK        -0.5119 
     52 CA         32.3963  -50.9631  -53.3278 C.3       4 UNK         0.0263 
     53 CB         33.0348  -51.4639  -54.6372 C.3       4 UNK        -0.1967 
     54 N          33.4539  -50.5256  -52.4097 N.am      4 UNK        -0.4237 
     55 C          33.3531  -50.5307  -51.0711 C.2       3 UNK         0.4908 
     56 O          32.3141  -50.8274  -50.4785 O.2       3 UNK        -0.5102 
     57 CA         34.6001  -50.1765  -50.2390 C.3       3 UNK         0.0241 
     58 CB         35.2122  -51.4496  -49.6307 C.3       3 UNK        -0.1971 
     59 N          35.6337  -49.4722  -50.9992 N.am      3 UNK        -0.4139 
     60 C          35.6173  -48.1597  -51.2617 C.2       2 UNK         0.5016 
     61 O          34.7446  -47.3918  -50.8562 O.2       2 UNK        -0.5319 
     62 CA         36.7474  -47.5979  -52.1449 C.3       2 UNK         0.0286 
     63 CB         37.9570  -48.5449  -52.3254 C.3       2 UNK        -0.1963 
     64 N          36.2142  -47.1718  -53.4418 N.am      2 UNK        -0.4790 
     65 C          35.5742  -47.9279  -54.3445 C.2       1 UNK         0.5024 
     66 O          35.4448  -49.1482  -54.2345 O.2       1 UNK        -0.4888 
     67 H67        37.1295  -44.3542  -57.3569 H         1 UNK         0.0892 
     68 H68        37.7666  -43.6799  -55.8553 H         1 UNK         0.0892 
     69 H69        36.2874  -43.0233  -56.5617 H         1 UNK         0.0892 
     70 H70        36.1495  -46.3047  -57.0232 H         1 UNK         0.3107 
     71 H71        34.9199  -47.9611  -56.3598 H         1 UNK         0.0773 
     72 H72        33.4543  -46.1632  -54.3850 H         1 UNK         0.0680 
     73 H73        32.9188  -47.7140  -54.9514 H         1 UNK         0.0680 
     74 H74        32.9714  -43.9857  -55.4868 H         1 UNK         0.0650 
     75 H75        31.7911  -43.8102  -56.7594 H         1 UNK         0.0650 
     76 H76        32.2652  -44.6490  -53.2183 H         1 UNK         0.1397 
     77 H77        28.0721  -44.9757  -52.3899 H         1 UNK         0.1363 
     78 H78        29.4291  -44.5822  -56.4368 H         1 UNK         0.1355 
     79 H79        26.5238  -45.3468  -54.2379 H         1 UNK         0.0707 
     80 H80        27.1067  -45.3807  -55.8886 H         1 UNK         0.0707 
     81 H81        24.3747  -42.4301  -55.9703 H         1 UNK         0.1034 
     82 H82        24.2399  -43.6069  -54.6998 H         1 UNK         0.1034 
     83 H83        24.7150  -45.4507  -56.2172 H         1 UNK         0.0482 
     84 H84        23.2154  -45.0371  -58.9833 H         1 UNK         0.3460 
     85 H85        21.5613  -45.0012  -58.4196 H         1 UNK         0.3460 
     86 H86        25.7954  -45.3147  -58.0907 H         1 UNK         0.2989 
     87 H87        25.8551  -43.1110  -60.8171 H         1 UNK         0.0559 
     88 H88        28.3394  -43.1723  -60.6542 H         1 UNK         0.0848 
     89 H89        28.2394  -43.6077  -58.9461 H         1 UNK         0.0848 
     90 H90        27.6843  -42.0326  -59.4915 H         1 UNK         0.0848 
     91 H91        27.3300  -45.4856  -60.3155 H         1 UNK         0.3144 
     92 H92        24.8096  -47.8990  -60.5618 H         1 UNK         0.0727 
     93 H93        26.0008  -48.7470  -62.5596 H         1 UNK         0.0790 
     94 H94        26.7965  -47.1884  -62.7882 H         1 UNK         0.0790 
     95 H95        25.0563  -47.3331  -62.9908 H         1 UNK         0.0790 
     96 H96        27.5439  -48.3488  -60.6575 H         1 UNK         0.3215 
     97 H97        28.4673  -49.3373  -58.7790 H         1 UNK         0.0863 
     98 H98        30.3325  -47.9138  -57.8809 H         1 UNK         0.0808 
     99 H99        29.2373  -46.5387  -57.7645 H         1 UNK         0.0808 
    100 H100       29.6512  -47.2080  -59.3357 H         1 UNK         0.0808 
    101 H101       28.4357  -48.1920  -56.1172 H         1 UNK         0.3118 
    102 H102       26.2556  -49.4476  -54.5667 H         1 UNK         0.0546 
    103 H103       26.0633  -51.9061  -54.9155 H         1 UNK         0.0828 
    104 H104       26.8321  -51.5793  -53.3736 H         1 UNK         0.0828 
    105 H105       27.8051  -52.0922  -54.7518 H         1 UNK         0.0828 
    106 H106       29.2019  -49.5254  -54.6602 H         1 UNK         0.3005 
    107 H107       29.9731  -47.5784  -53.2161 H         1 UNK         0.1257 
    108 H108       29.4555  -48.3708  -50.3071 H         1 UNK         0.0775 
    109 H109       28.7228  -46.9750  -51.0457 H         1 UNK         0.0775 
    110 H110       29.6492  -44.7076  -50.5575 H         1 UNK         0.0840 
    111 H111       31.2998  -44.2552  -50.8917 H         1 UNK         0.0840 
    112 H112       31.0141  -49.7290  -51.5848 H         1 UNK         0.2987 
    113 H113       31.8771  -51.8129  -52.8793 H         1 UNK         0.0785 
    114 H114       33.5182  -50.6568  -55.1879 H         1 UNK         0.0798 
    115 H115       32.2811  -51.8969  -55.2962 H         1 UNK         0.0798 
    116 H116       33.7804  -52.2362  -54.4481 H         1 UNK         0.0798 
    117 H117       34.3106  -50.1948  -52.8413 H         1 UNK         0.3079 
    118 H118       34.2693  -49.5358  -49.4183 H         1 UNK         0.0794 
    119 H119       35.5639  -52.1376  -50.4007 H         1 UNK         0.0786 
    120 H120       34.4792  -51.9853  -49.0256 H         1 UNK         0.0786 
    121 H121       36.0545  -51.2133  -48.9801 H         1 UNK         0.0786 
    122 H122       36.3792  -50.0311  -51.3890 H         1 UNK         0.3032 
    123 H123       37.1052  -46.6978  -51.6420 H         1 UNK         0.1094 
    124 H124       37.7012  -49.4608  -52.8587 H         1 UNK         0.0794 
    125 H125       38.7512  -48.0536  -52.8876 H         1 UNK         0.0794 
    126 H126       38.3810  -48.8285  -51.3611 H         1 UNK         0.0794 
    127 H127       36.1832  -46.1668  -53.6038 H         1 UNK         0.3016 
@<TRIPOS>BOND
     1    1    2 1    
     2    1   67 1    
     3    1   68 1    
     4    1   69 1    
     5    2    3 2    
     6    2    4 am   BACKBONE|DICT|INTERRES
     7    4    5 1    
     8    4   70 1    
     9    5    6 1    
    10    5   65 1    
    11    5   71 1    
    12    6    7 1    
    13    6   72 1    
    14    6   73 1    
    15    7    8 1    
    16    8    9 1    
    17    8   74 1    
    18    8   75 1    
    19    9   10 ar   
    20    9   14 ar   
    21   10   11 ar   
    22   10   76 1    
    23   11   12 ar   
    24   11   48 1    
    25   12   13 ar   
    26   12   77 1    
    27   13   14 ar   
    28   13   15 1    
    29   14   78 1    
    30   15   16 1    
    31   15   79 1    
    32   15   80 1    
    33   16   17 1    
    34   17   18 1    
    35   17   81 1    
    36   17   82 1    
    37   18   19 1    
    38   18   22 1    
    39   18   83 1    
    40   19   20 am   BACKBONE|DICT|INTERRES
    41   19   21 2    
    42   20   84 1    
    43   20   85 1    
    44   22   23 am   BACKBONE|DICT|INTERRES
    45   22   86 1    
    46   23   24 2    
    47   23   25 1    
    48   25   26 1    
    49   25   27 1    
    50   25   87 1    
    51   26   88 1    
    52   26   89 1    
    53   26   90 1    
    54   27   28 am   BACKBONE|DICT|INTERRES
    55   27   91 1    
    56   28   29 2    
    57   28   30 1    
    58   30   31 1    
    59   30   32 1    
    60   30   92 1    
    61   31   93 1    
    62   31   94 1    
    63   31   95 1    
    64   32   33 am   BACKBONE|DICT|INTERRES
    65   32   96 1    
    66   33   34 2    
    67   33   35 1    
    68   35   36 1    
    69   35   37 1    
    70   35   97 1    
    71   36   98 1    
    72   36   99 1    
    73   36  100 1    
    74   37   38 am   BACKBONE|DICT|INTERRES
    75   37  101 1    
    76   38   39 2    
    77   38   40 1    
    78   40   41 1    
    79   40   42 1    
    80   40  102 1    
    81   41  103 1    
    82   41  104 1    
    83   41  105 1    
    84   42   43 am   BACKBONE|DICT|INTERRES
    85   42  106 1    
    86   43   44 2    
    87   43   45 1    
    88   45   46 1    
    89   45   49 1    
    90   45  107 1    
    91   46   47 1    
    92   46  108 1    
    93   46  109 1    
    94   47   48 1    
    95   48  110 1    
    96   48  111 1    
    97   49   50 am   BACKBONE|DICT|INTERRES
    98   49  112 1    
    99   50   51 2    
   100   50   52 1    
   101   52   53 1    
   102   52   54 1    
   103   52  113 1    
   104   53  114 1    
   105   53  115 1    
   106   53  116 1    
   107   54   55 am   BACKBONE|DICT|INTERRES
   108   54  117 1    
   109   55   56 2    
   110   55   57 1    
   111   57   58 1    
   112   57   59 1    
   113   57  118 1    
   114   58  119 1    
   115   58  120 1    
   116   58  121 1    
   117   59   60 am   BACKBONE|DICT|INTERRES
   118   59  122 1    
   119   60   61 2    
   120   60   62 1    
   121   62   63 1    
   122   62   64 1    
   123   62  123 1    
   124   63  124 1    
   125   63  125 1    
   126   63  126 1    
   127   64   65 am   BACKBONE|DICT|INTERRES
   128   64  127 1    
   129   65   66 2    
@<TRIPOS>SUBSTRUCTURE
     1 UNK         1 GROUP             0       ****    0 ROOT    
