@<TRIPOS>MOLECULE
3R134
127   129    1
SMALL
USER_CHARGES


@<TRIPOS>ATOM
      1 CA         31.6496  -46.7095  -49.5365 C.3       0 UNK        -0.1968 
      2 C          32.7051  -45.9115  -48.7726 C.2       0 UNK         0.4852 
      3 O          32.5913  -45.7984  -47.5524 O.2       0 UNK        -0.5359 
      4 N          33.7348  -45.3301  -49.4096 N.am      1 UNK        -0.4300 
      5 CA         34.1081  -45.3649  -50.8344 C.3       1 UNK         0.0863 
      6 C6         33.0162  -44.8326  -51.8097 C.3       11 UNK        -0.0953 
      7 S7         32.2856  -43.2348  -51.3106 S.3       11 UNK        -0.2369 
      8 C8         32.5440  -42.2079  -52.7941 C.3       11 UNK         0.0226 
      9 C9         31.8990  -42.8100  -54.0365 C.ar      11 UNK        -0.0699 
     10 C10        32.6931  -43.2136  -55.1143 C.ar      11 UNK        -0.0804 
     11 C11        32.1164  -43.7810  -56.2544 C.ar      11 UNK        -0.0871 
     12 C12        30.7267  -43.9374  -56.3079 C.ar      11 UNK        -0.1008 
     13 C13        29.9203  -43.5370  -55.2394 C.ar      11 UNK        -0.0735 
     14 C14        30.5118  -42.9674  -54.1087 C.ar      11 UNK        -0.0945 
     15 C15        28.4136  -43.7375  -55.2926 C.3       11 UNK         0.0169 
     16 S16        27.5665  -42.3046  -56.0294 S.3       11 UNK        -0.2669 
     17 C17        27.6339  -42.6974  -57.8139 C.3       11 UNK        -0.0850 
     18 CA         26.2834  -43.2433  -58.3490 C.3       10 UNK         0.0855 
     19 C          26.2917  -43.3915  -59.8998 C.2       10 UNK         0.5543 
     20 N          25.9243  -44.5327  -60.4722 N.am      10 UNK        -0.7343 
     21 O          26.6294  -42.4426  -60.6032 O.2       10 UNK        -0.5027 
     22 N          25.8805  -44.4665  -57.6389 N.am      10 UNK        -0.4495 
     23 C          24.6190  -44.8210  -57.3734 C.2       10 UNK         0.4903 
     24 O          23.6374  -44.1292  -57.6501 O.2       10 UNK        -0.4860 
     25 CA         24.4348  -46.1880  -56.6855 C.3       9 UNK         0.0227 
     26 CB         22.9894  -46.7191  -56.7886 C.3       9 UNK        -0.1964 
     27 N          25.3898  -47.2084  -57.1403 N.am      9 UNK        -0.4231 
     28 C          25.5643  -47.6561  -58.3967 C.2       9 UNK         0.5014 
     29 O          24.9761  -47.1870  -59.3723 O.2       9 UNK        -0.5270 
     30 CA         26.5693  -48.8031  -58.6274 C.3       8 UNK         0.0284 
     31 CB         27.7273  -48.3450  -59.5311 C.3       8 UNK        -0.1977 
     32 N          27.1074  -49.3627  -57.3843 N.am      8 UNK        -0.4342 
     33 C          26.4370  -50.1988  -56.5778 C.2       8 UNK         0.5039 
     34 O          25.3247  -50.6541  -56.8466 O.2       8 UNK        -0.5547 
     35 CA         27.0870  -50.5750  -55.2329 C.3       7 UNK         0.0281 
     36 CB         27.6963  -51.9838  -55.3147 C.3       7 UNK        -0.1963 
     37 N          28.1039  -49.6281  -54.7600 N.am      7 UNK        -0.4444 
     38 C          27.8819  -48.3415  -54.4502 C.2       7 UNK         0.5104 
     39 O          26.7784  -47.8004  -54.5280 O.2       7 UNK        -0.5100 
     40 CA         29.1124  -47.4999  -54.0657 C.3       6 UNK         0.0396 
     41 CB         29.5273  -47.7550  -52.6093 C.3       6 UNK        -0.1801 
     42 N          30.2531  -47.7396  -54.9526 N.am      6 UNK        -0.4747 
     43 C          30.2543  -47.5072  -56.2741 C.2       6 UNK         0.5012 
     44 O          29.3034  -47.0088  -56.8765 O.2       6 UNK        -0.5003 
     45 CA         31.4892  -47.9827  -57.0624 C.3       5 UNK         0.0782 
     46 C46        32.6561  -46.9657  -57.0239 C.3       11 UNK        -0.0868 
     47 S47        32.4779  -45.6866  -58.3097 S.3       11 UNK        -0.2515 
     48 C48        33.0136  -44.1846  -57.4229 C.3       11 UNK         0.0199 
     49 N          31.9125  -49.3056  -56.6025 N.am      5 UNK        -0.4607 
     50 C          31.3076  -50.4515  -56.9415 C.2       4 UNK         0.5031 
     51 O          30.3512  -50.5172  -57.7132 O.2       4 UNK        -0.5119 
     52 CA         31.8536  -51.7427  -56.3066 C.3       4 UNK         0.0263 
     53 CB         32.9314  -52.3679  -57.2064 C.3       4 UNK        -0.1967 
     54 N          32.3994  -51.5419  -54.9611 N.am      4 UNK        -0.4237 
     55 C          31.6625  -51.2116  -53.8916 C.2       3 UNK         0.4908 
     56 O          30.4432  -51.0532  -53.9218 O.2       3 UNK        -0.5102 
     57 CA         32.4181  -50.9665  -52.5762 C.3       3 UNK         0.0241 
     58 CB         32.7165  -52.2969  -51.8666 C.3       3 UNK        -0.1971 
     59 N          33.6580  -50.1949  -52.7261 N.am      3 UNK        -0.4139 
     60 C          33.7360  -48.9703  -53.2640 C.2       2 UNK         0.5016 
     61 O          32.7919  -48.3930  -53.8088 O.2       2 UNK        -0.5319 
     62 CA         35.0887  -48.2492  -53.1755 C.3       2 UNK         0.0286 
     63 CB         35.7054  -48.0715  -54.5722 C.3       2 UNK        -0.1963 
     64 N          34.8790  -46.9363  -52.5652 N.am      2 UNK        -0.4790 
     65 C          34.6427  -46.7535  -51.2589 C.2       1 UNK         0.5024 
     66 O          34.8167  -47.6394  -50.4178 O.2       1 UNK        -0.4888 
     67 H67        30.9278  -46.0344  -49.9948 H         1 UNK         0.0892 
     68 H68        32.0812  -47.3437  -50.3079 H         1 UNK         0.0892 
     69 H69        31.1046  -47.3616  -48.8545 H         1 UNK         0.0892 
     70 H70        34.3981  -44.8305  -48.8348 H         1 UNK         0.3107 
     71 H71        34.9631  -44.6919  -50.9150 H         1 UNK         0.0773 
     72 H72        32.2055  -45.5491  -51.9389 H         1 UNK         0.0680 
     73 H73        33.4476  -44.7107  -52.8029 H         1 UNK         0.0680 
     74 H74        33.6155  -42.0629  -52.9399 H         1 UNK         0.0650 
     75 H75        32.1209  -41.2184  -52.6162 H         1 UNK         0.0650 
     76 H76        33.7658  -43.0844  -55.0650 H         1 UNK         0.1397 
     77 H77        30.2711  -44.3831  -57.1799 H         1 UNK         0.1363 
     78 H78        29.8949  -42.6574  -53.2763 H         1 UNK         0.1355 
     79 H79        28.0275  -43.8880  -54.2833 H         1 UNK         0.0707 
     80 H80        28.1696  -44.6465  -55.8439 H         1 UNK         0.0707 
     81 H81        27.9049  -41.7771  -58.3347 H         1 UNK         0.1034 
     82 H82        28.4380  -43.4025  -58.0214 H         1 UNK         0.1034 
     83 H83        25.5349  -42.4751  -58.1454 H         1 UNK         0.0482 
     84 H84        25.6064  -45.3226  -59.9221 H         1 UNK         0.3460 
     85 H85        25.9336  -44.5993  -61.4773 H         1 UNK         0.3460 
     86 H86        26.6202  -45.1108  -57.4032 H         1 UNK         0.2989 
     87 H87        24.6506  -46.0245  -55.6287 H         1 UNK         0.0559 
     88 H88        22.6838  -46.8592  -57.8260 H         1 UNK         0.0848 
     89 H89        22.2824  -46.0254  -56.3319 H         1 UNK         0.0848 
     90 H90        22.8805  -47.6745  -56.2751 H         1 UNK         0.0848 
     91 H91        25.9490  -47.6250  -56.4020 H         1 UNK         0.3144 
     92 H92        26.0339  -49.5967  -59.1528 H         1 UNK         0.0727 
     93 H93        28.4760  -49.1285  -59.6514 H         1 UNK         0.0790 
     94 H94        27.3620  -48.0906  -60.5269 H         1 UNK         0.0790 
     95 H95        28.2255  -47.4587  -59.1401 H         1 UNK         0.0790 
     96 H96        28.0181  -49.0309  -57.0936 H         1 UNK         0.3215 
     97 H97        26.2890  -50.5926  -54.4877 H         1 UNK         0.0863 
     98 H98        26.9570  -52.7128  -55.6494 H         1 UNK         0.0808 
     99 H99        28.0585  -52.3172  -54.3421 H         1 UNK         0.0808 
    100 H100       28.5308  -52.0195  -56.0155 H         1 UNK         0.0808 
    101 H101       29.0373  -50.0073  -54.6116 H         1 UNK         0.3118 
    102 H102       28.8397  -46.4474  -54.1585 H         1 UNK         0.0546 
    103 H103       30.3652  -47.1201  -52.3243 H         1 UNK         0.0828 
    104 H104       29.8243  -48.7913  -52.4472 H         1 UNK         0.0828 
    105 H105       28.7061  -47.5381  -51.9252 H         1 UNK         0.0828 
    106 H106       31.0994  -48.1130  -54.5259 H         1 UNK         0.3005 
    107 H107       31.1722  -48.0948  -58.1026 H         1 UNK         0.1257 
    108 H108       33.6018  -47.4708  -57.2263 H         1 UNK         0.0775 
    109 H109       32.7647  -46.5170  -56.0342 H         1 UNK         0.0775 
    110 H110       34.0391  -44.3372  -57.0825 H         1 UNK         0.0840 
    111 H111       33.0454  -43.3569  -58.1325 H         1 UNK         0.0840 
    112 H112       32.6386  -49.3248  -55.9002 H         1 UNK         0.2987 
    113 H113       31.0227  -52.4473  -56.2302 H         1 UNK         0.0785 
    114 H114       32.5430  -52.5508  -58.2095 H         1 UNK         0.0798 
    115 H115       33.2701  -53.3267  -56.8132 H         1 UNK         0.0798 
    116 H116       33.8019  -51.7184  -57.3077 H         1 UNK         0.0798 
    117 H117       33.3969  -51.6480  -54.8465 H         1 UNK         0.3079 
    118 H118       31.7568  -50.3835  -51.9318 H         1 UNK         0.0794 
    119 H119       33.1404  -52.1319  -50.8758 H         1 UNK         0.0786 
    120 H120       33.4164  -52.9119  -52.4337 H         1 UNK         0.0786 
    121 H121       31.8044  -52.8806  -51.7321 H         1 UNK         0.0786 
    122 H122       34.4844  -50.5904  -52.3007 H         1 UNK         0.3032 
    123 H123       35.7787  -48.8306  -52.5592 H         1 UNK         0.1094 
    124 H124       35.0710  -47.4692  -55.2228 H         1 UNK         0.0794 
    125 H125       36.6794  -47.5853  -54.5144 H         1 UNK         0.0794 
    126 H126       35.8539  -49.0355  -55.0606 H         1 UNK         0.0794 
    127 H127       34.6940  -46.1763  -53.2031 H         1 UNK         0.3016 
@<TRIPOS>BOND
     1    1    2 1    
     2    1   67 1    
     3    1   68 1    
     4    1   69 1    
     5    2    3 2    
     6    2    4 am   BACKBONE|DICT|INTERRES
     7    4    5 1    
     8    4   70 1    
     9    5    6 1    
    10    5   65 1    
    11    5   71 1    
    12    6    7 1    
    13    6   72 1    
    14    6   73 1    
    15    7    8 1    
    16    8    9 1    
    17    8   74 1    
    18    8   75 1    
    19    9   10 ar   
    20    9   14 ar   
    21   10   11 ar   
    22   10   76 1    
    23   11   12 ar   
    24   11   48 1    
    25   12   13 ar   
    26   12   77 1    
    27   13   14 ar   
    28   13   15 1    
    29   14   78 1    
    30   15   16 1    
    31   15   79 1    
    32   15   80 1    
    33   16   17 1    
    34   17   18 1    
    35   17   81 1    
    36   17   82 1    
    37   18   19 1    
    38   18   22 1    
    39   18   83 1    
    40   19   20 am   BACKBONE|DICT|INTERRES
    41   19   21 2    
    42   20   84 1    
    43   20   85 1    
    44   22   23 am   BACKBONE|DICT|INTERRES
    45   22   86 1    
    46   23   24 2    
    47   23   25 1    
    48   25   26 1    
    49   25   27 1    
    50   25   87 1    
    51   26   88 1    
    52   26   89 1    
    53   26   90 1    
    54   27   28 am   BACKBONE|DICT|INTERRES
    55   27   91 1    
    56   28   29 2    
    57   28   30 1    
    58   30   31 1    
    59   30   32 1    
    60   30   92 1    
    61   31   93 1    
    62   31   94 1    
    63   31   95 1    
    64   32   33 am   BACKBONE|DICT|INTERRES
    65   32   96 1    
    66   33   34 2    
    67   33   35 1    
    68   35   36 1    
    69   35   37 1    
    70   35   97 1    
    71   36   98 1    
    72   36   99 1    
    73   36  100 1    
    74   37   38 am   BACKBONE|DICT|INTERRES
    75   37  101 1    
    76   38   39 2    
    77   38   40 1    
    78   40   41 1    
    79   40   42 1    
    80   40  102 1    
    81   41  103 1    
    82   41  104 1    
    83   41  105 1    
    84   42   43 am   BACKBONE|DICT|INTERRES
    85   42  106 1    
    86   43   44 2    
    87   43   45 1    
    88   45   46 1    
    89   45   49 1    
    90   45  107 1    
    91   46   47 1    
    92   46  108 1    
    93   46  109 1    
    94   47   48 1    
    95   48  110 1    
    96   48  111 1    
    97   49   50 am   BACKBONE|DICT|INTERRES
    98   49  112 1    
    99   50   51 2    
   100   50   52 1    
   101   52   53 1    
   102   52   54 1    
   103   52  113 1    
   104   53  114 1    
   105   53  115 1    
   106   53  116 1    
   107   54   55 am   BACKBONE|DICT|INTERRES
   108   54  117 1    
   109   55   56 2    
   110   55   57 1    
   111   57   58 1    
   112   57   59 1    
   113   57  118 1    
   114   58  119 1    
   115   58  120 1    
   116   58  121 1    
   117   59   60 am   BACKBONE|DICT|INTERRES
   118   59  122 1    
   119   60   61 2    
   120   60   62 1    
   121   62   63 1    
   122   62   64 1    
   123   62  123 1    
   124   63  124 1    
   125   63  125 1    
   126   63  126 1    
   127   64   65 am   BACKBONE|DICT|INTERRES
   128   64  127 1    
   129   65   66 2    
@<TRIPOS>SUBSTRUCTURE
     1 UNK         1 GROUP             0       ****    0 ROOT    
