@<TRIPOS>MOLECULE
3R134
127   129    1
SMALL
USER_CHARGES


@<TRIPOS>ATOM
      1 CA         37.5628  -47.7549  -56.2751 C.3       0 UNK        -0.1968 
      2 C          36.5020  -47.4146  -55.2397 C.2       0 UNK         0.4852 
      3 O          35.9695  -48.3173  -54.5900 O.2       0 UNK        -0.5359 
      4 N          36.1785  -46.1232  -55.0838 N.am      1 UNK        -0.4300 
      5 CA         35.2013  -45.6389  -54.1047 C.3       1 UNK         0.0863 
      6 C6         34.7043  -44.2021  -54.4053 C.3       11 UNK        -0.0953 
      7 S7         33.8947  -44.0138  -56.0345 S.3       11 UNK        -0.2369 
      8 C8         32.5232  -45.2208  -56.0056 C.3       11 UNK         0.0226 
      9 C9         31.4432  -44.8822  -54.9848 C.ar      11 UNK        -0.0699 
     10 C10        31.5603  -45.3120  -53.6612 C.ar      11 UNK        -0.0804 
     11 C11        30.5557  -45.0520  -52.7258 C.ar      11 UNK        -0.0871 
     12 C12        29.4151  -44.3541  -53.1293 C.ar      11 UNK        -0.1008 
     13 C13        29.2679  -43.9386  -54.4573 C.ar      11 UNK        -0.0735 
     14 C14        30.2942  -44.1890  -55.3742 C.ar      11 UNK        -0.0945 
     15 C15        27.9970  -43.2328  -54.9082 C.3       11 UNK         0.0169 
     16 S16        26.5135  -44.2309  -54.5565 S.3       11 UNK        -0.2669 
     17 C17        25.2781  -43.4192  -55.6261 C.3       11 UNK        -0.0850 
     18 CA         24.6640  -44.3987  -56.6671 C.3       10 UNK         0.0855 
     19 C          23.5174  -43.7599  -57.5056 C.2       10 UNK         0.5543 
     20 N          22.9567  -44.4830  -58.4654 N.am      10 UNK        -0.7343 
     21 O          23.1247  -42.6151  -57.2900 O.2       10 UNK        -0.5027 
     22 N          25.6766  -45.0826  -57.4903 N.am      10 UNK        -0.4495 
     23 C          26.4710  -44.5159  -58.4097 C.2       10 UNK         0.4903 
     24 O          26.4893  -43.3118  -58.6657 O.2       10 UNK        -0.4860 
     25 CA         27.4014  -45.4604  -59.1881 C.3       9 UNK         0.0227 
     26 CB         28.7050  -45.7072  -58.4107 C.3       9 UNK        -0.1964 
     27 N          26.7401  -46.7367  -59.4663 N.am      9 UNK        -0.4231 
     28 C          25.9419  -46.9561  -60.5225 C.2       9 UNK         0.5014 
     29 O          25.7746  -46.1457  -61.4350 O.2       9 UNK        -0.5270 
     30 CA         25.1918  -48.3015  -60.5778 C.3       8 UNK         0.0284 
     31 CB         26.0005  -49.3349  -61.3790 C.3       8 UNK        -0.1977 
     32 N          24.8800  -48.8516  -59.2566 N.am      8 UNK        -0.4342 
     33 C          24.0540  -48.2881  -58.3636 C.2       8 UNK         0.5039 
     34 O          23.3863  -47.2803  -58.5919 O.2       8 UNK        -0.5547 
     35 CA         24.0020  -48.9226  -56.9611 C.3       7 UNK         0.0281 
     36 CB         22.8073  -49.8829  -56.8500 C.3       7 UNK        -0.1963 
     37 N          25.2341  -49.6272  -56.5818 N.am      7 UNK        -0.4444 
     38 C          26.4414  -49.0559  -56.4742 C.2       7 UNK         0.5104 
     39 O          26.6556  -47.8623  -56.6994 O.2       7 UNK        -0.5100 
     40 CA         27.6121  -50.0022  -56.1705 C.3       6 UNK         0.0396 
     41 CB         28.2363  -50.5041  -57.4828 C.3       6 UNK        -0.1801 
     42 N          28.6540  -49.3537  -55.3773 N.am      6 UNK        -0.4747 
     43 C          28.5748  -49.0704  -54.0712 C.2       6 UNK         0.5012 
     44 O          27.5921  -49.3403  -53.3775 O.2       6 UNK        -0.5003 
     45 CA         29.8296  -48.4315  -53.4349 C.3       5 UNK         0.0782 
     46 C46        29.6352  -48.0872  -51.9332 C.3       11 UNK        -0.0868 
     47 S47        31.1099  -47.3121  -51.1805 S.3       11 UNK        -0.2515 
     48 C48        30.6911  -45.5393  -51.2873 C.3       11 UNK         0.0199 
     49 N          31.0113  -49.2763  -53.6506 N.am      5 UNK        -0.4607 
     50 C          31.7467  -49.3224  -54.7662 C.2       4 UNK         0.5031 
     51 O          31.4911  -48.6497  -55.7663 O.2       4 UNK        -0.5119 
     52 CA         32.9550  -50.2788  -54.7586 C.3       4 UNK         0.0263 
     53 CB         33.7348  -50.2483  -56.0866 C.3       4 UNK        -0.1967 
     54 N          33.8746  -49.9911  -53.6520 N.am      4 UNK        -0.4237 
     55 C          33.7127  -50.4192  -52.3905 C.2       3 UNK         0.4908 
     56 O          32.7485  -51.0896  -52.0194 O.2       3 UNK        -0.5102 
     57 CA         34.7602  -49.9799  -51.3626 C.3       3 UNK         0.0241 
     58 CB         36.1737  -50.4851  -51.7108 C.3       3 UNK        -0.1971 
     59 N          34.7256  -48.5260  -51.2576 N.am      3 UNK        -0.4139 
     60 C          35.1350  -47.7903  -50.2162 C.2       2 UNK         0.5016 
     61 O          35.6542  -48.2648  -49.2045 O.2       2 UNK        -0.5319 
     62 CA         34.8958  -46.2668  -50.3179 C.3       2 UNK         0.0286 
     63 CB         35.9314  -45.4352  -49.5303 C.3       2 UNK        -0.1963 
     64 N          34.7582  -45.8088  -51.7103 N.am      2 UNK        -0.4790 
     65 C          35.7125  -45.7844  -52.6552 C.2       1 UNK         0.5024 
     66 O          36.9177  -45.9130  -52.4287 O.2       1 UNK        -0.4888 
     67 H67        38.4095  -48.2444  -55.7948 H         1 UNK         0.0892 
     68 H68        37.1524  -48.4357  -57.0203 H         1 UNK         0.0892 
     69 H69        37.9296  -46.8673  -56.7902 H         1 UNK         0.0892 
     70 H70        36.6512  -45.4146  -55.6259 H         1 UNK         0.3107 
     71 H71        34.3557  -46.3194  -54.1793 H         1 UNK         0.0773 
     72 H72        33.9992  -43.8604  -53.6460 H         1 UNK         0.0680 
     73 H73        35.5408  -43.5022  -54.3657 H         1 UNK         0.0680 
     74 H74        32.0809  -45.2482  -57.0026 H         1 UNK         0.0650 
     75 H75        32.9041  -46.2281  -55.8391 H         1 UNK         0.0650 
     76 H76        32.4171  -45.8869  -53.3582 H         1 UNK         0.1397 
     77 H77        28.6239  -44.1555  -52.4191 H         1 UNK         0.1363 
     78 H78        30.1927  -43.8605  -56.3984 H         1 UNK         0.1355 
     79 H79        27.9154  -42.2697  -54.4028 H         1 UNK         0.0707 
     80 H80        28.0413  -43.0249  -55.9787 H         1 UNK         0.0707 
     81 H81        25.7178  -42.5559  -56.1281 H         1 UNK         0.1034 
     82 H82        24.4954  -43.0193  -54.9790 H         1 UNK         0.1034 
     83 H83        24.1779  -45.1914  -56.0969 H         1 UNK         0.0482 
     84 H84        23.2178  -45.4592  -58.5967 H         1 UNK         0.3460 
     85 H85        22.2147  -44.0838  -59.0170 H         1 UNK         0.3460 
     86 H86        25.7863  -46.0734  -57.3111 H         1 UNK         0.2989 
     87 H87        27.6640  -44.9786  -60.1324 H         1 UNK         0.0559 
     88 H88        28.5202  -46.0823  -57.4029 H         1 UNK         0.0848 
     89 H89        29.2702  -44.7805  -58.3151 H         1 UNK         0.0848 
     90 H90        29.3469  -46.4238  -58.9230 H         1 UNK         0.0848 
     91 H91        26.7857  -47.4319  -58.7308 H         1 UNK         0.3144 
     92 H92        24.2466  -48.1282  -61.0969 H         1 UNK         0.0727 
     93 H93        25.4469  -50.2662  -61.5001 H         1 UNK         0.0790 
     94 H94        26.9512  -49.5675  -60.8973 H         1 UNK         0.0790 
     95 H95        26.2254  -48.9623  -62.3795 H         1 UNK         0.0790 
     96 H96        25.3653  -49.6943  -58.9870 H         1 UNK         0.3215 
     97 H97        23.8558  -48.1095  -56.2464 H         1 UNK         0.0863 
     98 H98        22.9078  -50.7347  -57.5238 H         1 UNK         0.0808 
     99 H99        21.8752  -49.3756  -57.1037 H         1 UNK         0.0808 
    100 H100       22.6980  -50.2662  -55.8353 H         1 UNK         0.0808 
    101 H101       25.1486  -50.6161  -56.3923 H         1 UNK         0.3118 
    102 H102       27.2384  -50.8615  -55.6097 H         1 UNK         0.0546 
    103 H103       29.0563  -51.1968  -57.2919 H         1 UNK         0.0828 
    104 H104       28.6276  -49.6823  -58.0846 H         1 UNK         0.0828 
    105 H105       27.5037  -51.0355  -58.0915 H         1 UNK         0.0828 
    106 H106       29.5024  -49.0815  -55.8635 H         1 UNK         0.3005 
    107 H107       29.9743  -47.4927  -53.9714 H         1 UNK         0.1257 
    108 H108       29.4102  -48.9905  -51.3632 H         1 UNK         0.0775 
    109 H109       28.7780  -47.4242  -51.8005 H         1 UNK         0.0775 
    110 H110       29.7730  -45.3597  -50.7255 H         1 UNK         0.0840 
    111 H111       31.4709  -44.9604  -50.7912 H         1 UNK         0.0840 
    112 H112       31.2854  -49.8733  -52.8782 H         1 UNK         0.2987 
    113 H113       32.5614  -51.2902  -54.6359 H         1 UNK         0.0785 
    114 H114       34.5866  -50.9281  -56.0641 H         1 UNK         0.0798 
    115 H115       33.0989  -50.5523  -56.9191 H         1 UNK         0.0798 
    116 H116       34.1088  -49.2494  -56.3130 H         1 UNK         0.0798 
    117 H117       34.6914  -49.4278  -53.8916 H         1 UNK         0.3079 
    118 H118       34.4698  -50.4042  -50.3989 H         1 UNK         0.0794 
    119 H119       36.8794  -50.2633  -50.9101 H         1 UNK         0.0786 
    120 H120       36.5585  -50.0310  -52.6240 H         1 UNK         0.0786 
    121 H121       36.1776  -51.5663  -51.8542 H         1 UNK         0.0786 
    122 H122       34.2816  -48.0476  -52.0269 H         1 UNK         0.3032 
    123 H123       33.9252  -46.0956  -49.8487 H         1 UNK         0.1094 
    124 H124       36.9531  -45.6478  -49.8453 H         1 UNK         0.0794 
    125 H125       35.7568  -44.3659  -49.6488 H         1 UNK         0.0794 
    126 H126       35.8744  -45.6554  -48.4636 H         1 UNK         0.0794 
    127 H127       33.8088  -45.6099  -51.9890 H         1 UNK         0.3016 
@<TRIPOS>BOND
     1    1    2 1    
     2    1   67 1    
     3    1   68 1    
     4    1   69 1    
     5    2    3 2    
     6    2    4 am   BACKBONE|DICT|INTERRES
     7    4    5 1    
     8    4   70 1    
     9    5    6 1    
    10    5   65 1    
    11    5   71 1    
    12    6    7 1    
    13    6   72 1    
    14    6   73 1    
    15    7    8 1    
    16    8    9 1    
    17    8   74 1    
    18    8   75 1    
    19    9   10 ar   
    20    9   14 ar   
    21   10   11 ar   
    22   10   76 1    
    23   11   12 ar   
    24   11   48 1    
    25   12   13 ar   
    26   12   77 1    
    27   13   14 ar   
    28   13   15 1    
    29   14   78 1    
    30   15   16 1    
    31   15   79 1    
    32   15   80 1    
    33   16   17 1    
    34   17   18 1    
    35   17   81 1    
    36   17   82 1    
    37   18   19 1    
    38   18   22 1    
    39   18   83 1    
    40   19   20 am   BACKBONE|DICT|INTERRES
    41   19   21 2    
    42   20   84 1    
    43   20   85 1    
    44   22   23 am   BACKBONE|DICT|INTERRES
    45   22   86 1    
    46   23   24 2    
    47   23   25 1    
    48   25   26 1    
    49   25   27 1    
    50   25   87 1    
    51   26   88 1    
    52   26   89 1    
    53   26   90 1    
    54   27   28 am   BACKBONE|DICT|INTERRES
    55   27   91 1    
    56   28   29 2    
    57   28   30 1    
    58   30   31 1    
    59   30   32 1    
    60   30   92 1    
    61   31   93 1    
    62   31   94 1    
    63   31   95 1    
    64   32   33 am   BACKBONE|DICT|INTERRES
    65   32   96 1    
    66   33   34 2    
    67   33   35 1    
    68   35   36 1    
    69   35   37 1    
    70   35   97 1    
    71   36   98 1    
    72   36   99 1    
    73   36  100 1    
    74   37   38 am   BACKBONE|DICT|INTERRES
    75   37  101 1    
    76   38   39 2    
    77   38   40 1    
    78   40   41 1    
    79   40   42 1    
    80   40  102 1    
    81   41  103 1    
    82   41  104 1    
    83   41  105 1    
    84   42   43 am   BACKBONE|DICT|INTERRES
    85   42  106 1    
    86   43   44 2    
    87   43   45 1    
    88   45   46 1    
    89   45   49 1    
    90   45  107 1    
    91   46   47 1    
    92   46  108 1    
    93   46  109 1    
    94   47   48 1    
    95   48  110 1    
    96   48  111 1    
    97   49   50 am   BACKBONE|DICT|INTERRES
    98   49  112 1    
    99   50   51 2    
   100   50   52 1    
   101   52   53 1    
   102   52   54 1    
   103   52  113 1    
   104   53  114 1    
   105   53  115 1    
   106   53  116 1    
   107   54   55 am   BACKBONE|DICT|INTERRES
   108   54  117 1    
   109   55   56 2    
   110   55   57 1    
   111   57   58 1    
   112   57   59 1    
   113   57  118 1    
   114   58  119 1    
   115   58  120 1    
   116   58  121 1    
   117   59   60 am   BACKBONE|DICT|INTERRES
   118   59  122 1    
   119   60   61 2    
   120   60   62 1    
   121   62   63 1    
   122   62   64 1    
   123   62  123 1    
   124   63  124 1    
   125   63  125 1    
   126   63  126 1    
   127   64   65 am   BACKBONE|DICT|INTERRES
   128   64  127 1    
   129   65   66 2    
@<TRIPOS>SUBSTRUCTURE
     1 UNK         1 GROUP             0       ****    0 ROOT    
