@<TRIPOS>MOLECULE
3R134
127   129    1
SMALL
USER_CHARGES


@<TRIPOS>ATOM
      1 CA         37.0142  -48.0436  -55.5332 C.3       0 UNK        -0.1968 
      2 C          35.6781  -47.6388  -54.9307 C.2       0 UNK         0.4852 
      3 O          34.7251  -48.4167  -54.9925 O.2       0 UNK        -0.5359 
      4 N          35.6086  -46.4375  -54.3375 N.am      1 UNK        -0.4300 
      5 CA         34.4187  -45.8149  -53.7348 C.3       1 UNK         0.0863 
      6 C6         34.7652  -44.4622  -53.0688 C.3       11 UNK        -0.0953 
      7 S7         35.2527  -43.2111  -54.3020 S.3       11 UNK        -0.2369 
      8 C8         34.1465  -41.8229  -53.8908 C.3       11 UNK         0.0226 
      9 C9         32.6786  -42.1446  -54.1413 C.ar      11 UNK        -0.0699 
     10 C10        31.8076  -42.3582  -53.0672 C.ar      11 UNK        -0.0804 
     11 C11        30.4520  -42.6248  -53.2867 C.ar      11 UNK        -0.0871 
     12 C12        29.9692  -42.6591  -54.5992 C.ar      11 UNK        -0.1008 
     13 C13        30.8317  -42.4593  -55.6807 C.ar      11 UNK        -0.0735 
     14 C14        32.1851  -42.2015  -55.4475 C.ar      11 UNK        -0.0945 
     15 C15        30.2919  -42.5266  -57.0979 C.3       11 UNK         0.0169 
     16 S16        30.1174  -44.2540  -57.6292 S.3       11 UNK        -0.2669 
     17 C17        29.1323  -44.0415  -59.1504 C.3       11 UNK        -0.0850 
     18 CA         27.6074  -43.9046  -58.8863 C.3       10 UNK         0.0855 
     19 C          26.8296  -43.7909  -60.2314 C.2       10 UNK         0.5543 
     20 N          25.9762  -44.7410  -60.5983 N.am      10 UNK        -0.7343 
     21 O          27.0077  -42.8158  -60.9569 O.2       10 UNK        -0.5027 
     22 N          27.1188  -44.9519  -57.9798 N.am      10 UNK        -0.4495 
     23 C          25.9391  -44.9567  -57.3471 C.2       10 UNK         0.4903 
     24 O          25.1456  -44.0148  -57.3652 O.2       10 UNK        -0.4860 
     25 CA         25.5943  -46.2484  -56.5781 C.3       9 UNK         0.0227 
     26 CB         24.0761  -46.4560  -56.3990 C.3       9 UNK        -0.1964 
     27 N          26.2235  -47.4420  -57.1625 N.am      9 UNK        -0.4231 
     28 C          26.0630  -47.9109  -58.4108 C.2       9 UNK         0.5014 
     29 O          25.2888  -47.4226  -59.2355 O.2       9 UNK        -0.5270 
     30 CA         26.9612  -49.0782  -58.8401 C.3       8 UNK         0.0284 
     31 CB         28.1906  -48.5439  -59.5968 C.3       8 UNK        -0.1977 
     32 N          27.4119  -49.8820  -57.7006 N.am      8 UNK        -0.4342 
     33 C          26.8938  -51.0702  -57.3666 C.2       8 UNK         0.5039 
     34 O          25.9539  -51.6031  -57.9586 O.2       8 UNK        -0.5547 
     35 CA         27.5515  -51.8082  -56.1924 C.3       7 UNK         0.0281 
     36 CB         28.8945  -52.4213  -56.6245 C.3       7 UNK        -0.1963 
     37 N          27.7574  -50.9682  -55.0122 N.am      7 UNK        -0.4444 
     38 C          26.7877  -50.5894  -54.1685 C.2       7 UNK         0.5104 
     39 O          25.5907  -50.8100  -54.3532 O.2       7 UNK        -0.5100 
     40 CA         27.2315  -49.8709  -52.8846 C.3       6 UNK         0.0396 
     41 CB         27.8791  -50.8611  -51.9018 C.3       6 UNK        -0.1801 
     42 N          28.1718  -48.7901  -53.1758 N.am      6 UNK        -0.4747 
     43 C          27.8187  -47.5112  -53.3710 C.2       6 UNK         0.5012 
     44 O          26.6622  -47.1052  -53.2587 O.2       6 UNK        -0.5003 
     45 CA         28.9333  -46.5194  -53.7814 C.3       5 UNK         0.0782 
     46 C46        29.3985  -45.6526  -52.5821 C.3       11 UNK        -0.0868 
     47 S47        28.3188  -44.2051  -52.3162 S.3       11 UNK        -0.2515 
     48 C48        29.5236  -42.8484  -52.0939 C.3       11 UNK         0.0199 
     49 N          30.0633  -47.1774  -54.4488 N.am      5 UNK        -0.4607 
     50 C          29.9769  -47.7775  -55.6441 C.2       4 UNK         0.5031 
     51 O          28.9327  -47.8574  -56.2923 O.2       4 UNK        -0.5119 
     52 CA         31.2402  -48.4552  -56.1930 C.3       4 UNK         0.0263 
     53 CB         32.1204  -47.4357  -56.9303 C.3       4 UNK        -0.1967 
     54 N          32.0370  -49.1639  -55.1873 N.am      4 UNK        -0.4237 
     55 C          31.5979  -50.1748  -54.4223 C.2       3 UNK         0.4908 
     56 O          30.4243  -50.5409  -54.3794 O.2       3 UNK        -0.5102 
     57 CA         32.6370  -50.8962  -53.5563 C.3       3 UNK         0.0241 
     58 CB         33.5855  -51.7396  -54.4247 C.3       3 UNK        -0.1971 
     59 N          33.4058  -49.9306  -52.7770 N.am      3 UNK        -0.4139 
     60 C          33.1149  -49.5721  -51.5192 C.2       2 UNK         0.5016 
     61 O          32.2391  -50.1048  -50.8363 O.2       2 UNK        -0.5319 
     62 CA         33.9262  -48.4097  -50.9158 C.3       2 UNK         0.0286 
     63 CB         35.0964  -48.9489  -50.0775 C.3       2 UNK        -0.1963 
     64 N          34.4424  -47.4595  -51.9072 N.am      2 UNK        -0.4790 
     65 C          33.6822  -46.7222  -52.7307 C.2       1 UNK         0.5024 
     66 O          32.4529  -46.7693  -52.7512 O.2       1 UNK        -0.4888 
     67 H67        36.8999  -48.2318  -56.6003 H         1 UNK         0.0892 
     68 H68        37.7724  -47.2716  -55.4035 H         1 UNK         0.0892 
     69 H69        37.3749  -48.9578  -55.0627 H         1 UNK         0.0892 
     70 H70        36.4328  -45.8533  -54.3342 H         1 UNK         0.3107 
     71 H71        33.7157  -45.6223  -54.5472 H         1 UNK         0.0773 
     72 H72        33.9189  -44.0856  -52.4932 H         1 UNK         0.0680 
     73 H73        35.5809  -44.5803  -52.3531 H         1 UNK         0.0680 
     74 H74        34.4309  -40.9598  -54.4942 H         1 UNK         0.0650 
     75 H75        34.3090  -41.5326  -52.8516 H         1 UNK         0.0650 
     76 H76        32.1870  -42.3114  -52.0555 H         1 UNK         0.1397 
     77 H77        28.9222  -42.8564  -54.7845 H         1 UNK         0.1363 
     78 H78        32.8563  -42.0439  -56.2808 H         1 UNK         0.1355 
     79 H79        30.9486  -41.9971  -57.7900 H         1 UNK         0.0707 
     80 H80        29.3239  -42.0256  -57.1407 H         1 UNK         0.0707 
     81 H81        29.3269  -44.9050  -59.7895 H         1 UNK         0.1034 
     82 H82        29.5076  -43.1743  -59.6976 H         1 UNK         0.1034 
     83 H83        27.4484  -42.9544  -58.3737 H         1 UNK         0.0482 
     84 H84        25.4825  -44.6456  -61.4713 H         1 UNK         0.3460 
     85 H85        25.8066  -45.5499  -60.0122 H         1 UNK         0.3460 
     86 H86        27.7193  -45.7567  -57.8779 H         1 UNK         0.2989 
     87 H87        26.0300  -46.1259  -55.5877 H         1 UNK         0.0559 
     88 H88        23.5592  -46.5197  -57.3570 H         1 UNK         0.0848 
     89 H89        23.6310  -45.6293  -55.8441 H         1 UNK         0.0848 
     90 H90        23.8656  -47.3685  -55.8412 H         1 UNK         0.0848 
     91 H91        26.9705  -47.8514  -56.6110 H         1 UNK         0.3144 
     92 H92        26.3850  -49.6939  -59.5340 H         1 UNK         0.0727 
     93 H93        28.8164  -49.3598  -59.9585 H         1 UNK         0.0790 
     94 H94        28.8101  -47.9000  -58.9717 H         1 UNK         0.0790 
     95 H95        27.8890  -47.9585  -60.4667 H         1 UNK         0.0790 
     96 H96        28.1533  -49.4850  -57.1324 H         1 UNK         0.3215 
     97 H97        26.8883  -52.6285  -55.9080 H         1 UNK         0.0863 
     98 H98        29.3299  -53.0225  -55.8260 H         1 UNK         0.0808 
     99 H99        29.6219  -51.6558  -56.8979 H         1 UNK         0.0808 
    100 H100       28.7664  -53.0743  -57.4888 H         1 UNK         0.0808 
    101 H101       28.7261  -50.7630  -54.7663 H         1 UNK         0.3118 
    102 H102       26.3394  -49.4669  -52.4011 H         1 UNK         0.0546 
    103 H103       27.1970  -51.6793  -51.6671 H         1 UNK         0.0828 
    104 H104       28.1342  -50.3730  -50.9612 H         1 UNK         0.0828 
    105 H105       28.7913  -51.3028  -52.3046 H         1 UNK         0.0828 
    106 H106       29.1347  -49.0573  -53.3397 H         1 UNK         0.3005 
    107 H107       28.4951  -45.8547  -54.5302 H         1 UNK         0.1257 
    108 H108       30.4038  -45.2772  -52.7687 H         1 UNK         0.0775 
    109 H109       29.4704  -46.2347  -51.6612 H         1 UNK         0.0775 
    110 H110       28.9762  -41.9245  -51.9035 H         1 UNK         0.0840 
    111 H111       30.1026  -43.0533  -51.1919 H         1 UNK         0.0840 
    112 H112       30.9527  -47.1593  -53.9576 H         1 UNK         0.2987 
    113 H113       30.9144  -49.2020  -56.9198 H         1 UNK         0.0785 
    114 H114       32.4606  -46.6413  -56.2663 H         1 UNK         0.0798 
    115 H115       31.5696  -46.9650  -57.7456 H         1 UNK         0.0798 
    116 H116       33.0004  -47.9092  -57.3658 H         1 UNK         0.0798 
    117 H117       33.0250  -48.9144  -55.1408 H         1 UNK         0.3079 
    118 H118       32.1024  -51.5769  -52.8901 H         1 UNK         0.0794 
    119 H119       34.1679  -51.1258  -55.1130 H         1 UNK         0.0786 
    120 H120       33.0272  -52.4613  -55.0227 H         1 UNK         0.0786 
    121 H121       34.2859  -52.3032  -53.8082 H         1 UNK         0.0786 
    122 H122       34.1059  -49.3987  -53.2825 H         1 UNK         0.3032 
    123 H123       33.2520  -47.8611  -50.2540 H         1 UNK         0.1094 
    124 H124       35.6220  -48.1438  -49.5636 H         1 UNK         0.0794 
    125 H125       34.7417  -49.6410  -49.3122 H         1 UNK         0.0794 
    126 H126       35.8198  -49.4862  -50.6922 H         1 UNK         0.0794 
    127 H127       35.4462  -47.3693  -51.9744 H         1 UNK         0.3016 
@<TRIPOS>BOND
     1    1    2 1    
     2    1   67 1    
     3    1   68 1    
     4    1   69 1    
     5    2    3 2    
     6    2    4 am   BACKBONE|DICT|INTERRES
     7    4    5 1    
     8    4   70 1    
     9    5    6 1    
    10    5   65 1    
    11    5   71 1    
    12    6    7 1    
    13    6   72 1    
    14    6   73 1    
    15    7    8 1    
    16    8    9 1    
    17    8   74 1    
    18    8   75 1    
    19    9   10 ar   
    20    9   14 ar   
    21   10   11 ar   
    22   10   76 1    
    23   11   12 ar   
    24   11   48 1    
    25   12   13 ar   
    26   12   77 1    
    27   13   14 ar   
    28   13   15 1    
    29   14   78 1    
    30   15   16 1    
    31   15   79 1    
    32   15   80 1    
    33   16   17 1    
    34   17   18 1    
    35   17   81 1    
    36   17   82 1    
    37   18   19 1    
    38   18   22 1    
    39   18   83 1    
    40   19   20 am   BACKBONE|DICT|INTERRES
    41   19   21 2    
    42   20   84 1    
    43   20   85 1    
    44   22   23 am   BACKBONE|DICT|INTERRES
    45   22   86 1    
    46   23   24 2    
    47   23   25 1    
    48   25   26 1    
    49   25   27 1    
    50   25   87 1    
    51   26   88 1    
    52   26   89 1    
    53   26   90 1    
    54   27   28 am   BACKBONE|DICT|INTERRES
    55   27   91 1    
    56   28   29 2    
    57   28   30 1    
    58   30   31 1    
    59   30   32 1    
    60   30   92 1    
    61   31   93 1    
    62   31   94 1    
    63   31   95 1    
    64   32   33 am   BACKBONE|DICT|INTERRES
    65   32   96 1    
    66   33   34 2    
    67   33   35 1    
    68   35   36 1    
    69   35   37 1    
    70   35   97 1    
    71   36   98 1    
    72   36   99 1    
    73   36  100 1    
    74   37   38 am   BACKBONE|DICT|INTERRES
    75   37  101 1    
    76   38   39 2    
    77   38   40 1    
    78   40   41 1    
    79   40   42 1    
    80   40  102 1    
    81   41  103 1    
    82   41  104 1    
    83   41  105 1    
    84   42   43 am   BACKBONE|DICT|INTERRES
    85   42  106 1    
    86   43   44 2    
    87   43   45 1    
    88   45   46 1    
    89   45   49 1    
    90   45  107 1    
    91   46   47 1    
    92   46  108 1    
    93   46  109 1    
    94   47   48 1    
    95   48  110 1    
    96   48  111 1    
    97   49   50 am   BACKBONE|DICT|INTERRES
    98   49  112 1    
    99   50   51 2    
   100   50   52 1    
   101   52   53 1    
   102   52   54 1    
   103   52  113 1    
   104   53  114 1    
   105   53  115 1    
   106   53  116 1    
   107   54   55 am   BACKBONE|DICT|INTERRES
   108   54  117 1    
   109   55   56 2    
   110   55   57 1    
   111   57   58 1    
   112   57   59 1    
   113   57  118 1    
   114   58  119 1    
   115   58  120 1    
   116   58  121 1    
   117   59   60 am   BACKBONE|DICT|INTERRES
   118   59  122 1    
   119   60   61 2    
   120   60   62 1    
   121   62   63 1    
   122   62   64 1    
   123   62  123 1    
   124   63  124 1    
   125   63  125 1    
   126   63  126 1    
   127   64   65 am   BACKBONE|DICT|INTERRES
   128   64  127 1    
   129   65   66 2    
@<TRIPOS>SUBSTRUCTURE
     1 UNK         1 GROUP             0       ****    0 ROOT    
