@<TRIPOS>MOLECULE
3R134
127   129    1
SMALL
USER_CHARGES


@<TRIPOS>ATOM
      1 CA         32.2742  -45.8468  -50.7733 C.3       0 UNK        -0.1968 
      2 C          33.7380  -45.5373  -51.0405 C.2       0 UNK         0.4852 
      3 O          34.3168  -44.6761  -50.3759 O.2       0 UNK        -0.5359 
      4 N          34.3334  -46.2352  -52.0095 N.am      1 UNK        -0.4300 
      5 CA         35.7244  -46.0775  -52.4301 C.3       1 UNK         0.0863 
      6 C6         35.9307  -44.9077  -53.4357 C.3       11 UNK        -0.0953 
      7 S7         34.7818  -44.9239  -54.8630 S.3       11 UNK        -0.2369 
      8 C8         33.8943  -43.3400  -54.6810 C.3       11 UNK         0.0226 
      9 C9         32.3840  -43.5188  -54.7485 C.ar      11 UNK        -0.0699 
     10 C10        31.5887  -43.2724  -53.6242 C.ar      11 UNK        -0.0804 
     11 C11        30.1966  -43.3888  -53.7004 C.ar      11 UNK        -0.0871 
     12 C12        29.6032  -43.7612  -54.9085 C.ar      11 UNK        -0.1008 
     13 C13        30.3884  -44.0494  -56.0271 C.ar      11 UNK        -0.0735 
     14 C14        31.7770  -43.9092  -55.9458 C.ar      11 UNK        -0.0945 
     15 C15        29.7504  -44.5666  -57.3060 C.3       11 UNK         0.0169 
     16 S16        29.1950  -43.2315  -58.4087 S.3       11 UNK        -0.2669 
     17 C17        27.5394  -42.7518  -57.7845 C.3       11 UNK        -0.0850 
     18 CA         26.5558  -43.8921  -57.3665 C.3       10 UNK         0.0855 
     19 C          25.1523  -43.3426  -56.9725 C.2       10 UNK         0.5543 
     20 N          24.0614  -44.0415  -57.2618 N.am      10 UNK        -0.7343 
     21 O          25.0494  -42.2760  -56.3713 O.2       10 UNK        -0.5027 
     22 N          26.5219  -45.0441  -58.2839 N.am      10 UNK        -0.4495 
     23 C          26.2720  -45.0387  -59.5977 C.2       10 UNK         0.4903 
     24 O          26.0174  -44.0179  -60.2387 O.2       10 UNK        -0.4860 
     25 CA         26.3136  -46.4085  -60.3181 C.3       9 UNK         0.0227 
     26 CB         26.4208  -46.2614  -61.8481 C.3       9 UNK        -0.1964 
     27 N          27.3863  -47.3029  -59.8534 N.am      9 UNK        -0.4231 
     28 C          27.3923  -47.9797  -58.6972 C.2       9 UNK         0.5014 
     29 O          26.4912  -47.8857  -57.8617 O.2       9 UNK        -0.5270 
     30 CA         28.6180  -48.8684  -58.4173 C.3       8 UNK         0.0284 
     31 CB         29.8751  -48.0290  -58.1424 C.3       8 UNK        -0.1977 
     32 N          28.3777  -49.7304  -57.2611 N.am      8 UNK        -0.4342 
     33 C          27.7027  -50.8852  -57.3037 C.2       8 UNK         0.5039 
     34 O          27.3510  -51.4434  -58.3444 O.2       8 UNK        -0.5547 
     35 CA         27.3366  -51.5052  -55.9492 C.3       7 UNK         0.0281 
     36 CB         28.5562  -52.1884  -55.3080 C.3       7 UNK        -0.1963 
     37 N          26.7917  -50.4892  -55.0441 N.am      7 UNK        -0.4444 
     38 C          25.5053  -50.1083  -55.0294 C.2       7 UNK         0.5104 
     39 O          24.6360  -50.6238  -55.7337 O.2       7 UNK        -0.5100 
     40 CA         25.0941  -48.9927  -54.0493 C.3       6 UNK         0.0396 
     41 CB         24.3032  -49.5865  -52.8715 C.3       6 UNK        -0.1801 
     42 N          26.2361  -48.2459  -53.5179 N.am      6 UNK        -0.4747 
     43 C          26.7328  -47.1196  -54.0500 C.2       6 UNK         0.5012 
     44 O          26.2422  -46.5373  -55.0160 O.2       6 UNK        -0.5003 
     45 CA         27.9956  -46.5336  -53.3849 C.3       5 UNK         0.0782 
     46 C46        27.5974  -45.3748  -52.4338 C.3       11 UNK        -0.0868 
     47 S47        29.0002  -44.6301  -51.5328 S.3       11 UNK        -0.2515 
     48 C48        29.3331  -43.1104  -52.4793 C.3       11 UNK         0.0199 
     49 N          28.8434  -47.5388  -52.7293 N.am      5 UNK        -0.4607 
     50 C          29.4449  -48.5562  -53.3568 C.2       4 UNK         0.5031 
     51 O          29.2409  -48.8531  -54.5383 O.2       4 UNK        -0.5119 
     52 CA         30.3821  -49.4231  -52.5029 C.3       4 UNK         0.0263 
     53 CB         29.5927  -50.5472  -51.8127 C.3       4 UNK        -0.1967 
     54 N          31.4358  -50.0086  -53.3316 N.am      4 UNK        -0.4237 
     55 C          32.4823  -49.3210  -53.8024 C.2       3 UNK         0.4908 
     56 O          32.7546  -48.1620  -53.4689 O.2       3 UNK        -0.5102 
     57 CA         33.3583  -50.0459  -54.8322 C.3       3 UNK         0.0241 
     58 CB         32.6772  -50.0665  -56.2110 C.3       3 UNK        -0.1971 
     59 N          34.6162  -49.3200  -54.9337 N.am      3 UNK        -0.4139 
     60 C          35.8446  -49.8455  -54.9436 C.2       2 UNK         0.5016 
     61 O          36.0803  -51.0510  -55.0353 O.2       2 UNK        -0.5319 
     62 CA         37.0128  -48.8494  -54.8024 C.3       2 UNK         0.0286 
     63 CB         37.6353  -48.5495  -56.1755 C.3       2 UNK        -0.1963 
     64 N          36.6186  -47.5844  -54.1672 N.am      2 UNK        -0.4790 
     65 C          36.2365  -47.4542  -52.8882 C.2       1 UNK         0.5024 
     66 O          36.2586  -48.3835  -52.0790 O.2       1 UNK        -0.4888 
     67 H67        32.1830  -46.6205  -50.0119 H         1 UNK         0.0892 
     68 H68        31.7598  -44.9544  -50.4183 H         1 UNK         0.0892 
     69 H69        31.7703  -46.1877  -51.6783 H         1 UNK         0.0892 
     70 H70        33.8024  -46.9421  -52.5174 H         1 UNK         0.3107 
     71 H71        36.3226  -45.8475  -51.5456 H         1 UNK         0.0773 
     72 H72        36.9558  -44.8930  -53.8102 H         1 UNK         0.0680 
     73 H73        35.8260  -43.9683  -52.8932 H         1 UNK         0.0680 
     74 H74        34.2112  -42.6699  -55.4812 H         1 UNK         0.0650 
     75 H75        34.1668  -42.8434  -53.7497 H         1 UNK         0.0650 
     76 H76        32.0518  -42.9810  -52.6912 H         1 UNK         0.1397 
     77 H77        28.5294  -43.8526  -54.9650 H         1 UNK         0.1363 
     78 H78        32.3913  -44.1184  -56.8110 H         1 UNK         0.1355 
     79 H79        30.4842  -45.1576  -57.8547 H         1 UNK         0.0707 
     80 H80        28.9382  -45.2528  -57.0728 H         1 UNK         0.0707 
     81 H81        27.6956  -42.0772  -56.9407 H         1 UNK         0.1034 
     82 H82        27.0773  -42.1398  -58.5611 H         1 UNK         0.1034 
     83 H83        26.9291  -44.3097  -56.4342 H         1 UNK         0.0482 
     84 H84        24.1384  -44.9295  -57.7309 H         1 UNK         0.3460 
     85 H85        23.1576  -43.6843  -56.9951 H         1 UNK         0.3460 
     86 H86        26.6207  -45.9546  -57.8428 H         1 UNK         0.2989 
     87 H87        25.3590  -46.8944  -60.1058 H         1 UNK         0.0559 
     88 H88        27.3404  -45.7527  -62.1399 H         1 UNK         0.0848 
     89 H89        25.5872  -45.6821  -62.2476 H         1 UNK         0.0848 
     90 H90        26.3997  -47.2317  -62.3447 H         1 UNK         0.0848 
     91 H91        28.1807  -47.3999  -60.4698 H         1 UNK         0.3144 
     92 H92        28.7964  -49.4846  -59.3012 H         1 UNK         0.0727 
     93 H93        30.7591  -48.6638  -58.1028 H         1 UNK         0.0790 
     94 H94        29.8059  -47.4984  -57.1923 H         1 UNK         0.0790 
     95 H95        30.0493  -47.2936  -58.9283 H         1 UNK         0.0790 
     96 H96        28.6077  -49.3405  -56.3515 H         1 UNK         0.3215 
     97 H97        26.5798  -52.2733  -56.1247 H         1 UNK         0.0863 
     98 H98        29.3629  -51.4835  -55.1084 H         1 UNK         0.0808 
     99 H99        28.9570  -52.9603  -55.9663 H         1 UNK         0.0808 
    100 H100       28.2891  -52.6733  -54.3691 H         1 UNK         0.0808 
    101 H101       27.4599  -49.9544  -54.5043 H         1 UNK         0.3118 
    102 H102       24.4325  -48.3124  -54.5899 H         1 UNK         0.0546 
    103 H103       24.9033  -50.2906  -52.2938 H         1 UNK         0.0828 
    104 H104       23.4215  -50.1236  -53.2241 H         1 UNK         0.0828 
    105 H105       23.9545  -48.8066  -52.1945 H         1 UNK         0.0828 
    106 H106       26.6948  -48.6302  -52.7043 H         1 UNK         0.3005 
    107 H107       28.5957  -46.1251  -54.1980 H         1 UNK         0.1257 
    108 H108       26.8922  -45.7339  -51.6815 H         1 UNK         0.0775 
    109 H109       27.0694  -44.5934  -52.9836 H         1 UNK         0.0775 
    110 H110       28.3968  -42.6318  -52.7702 H         1 UNK         0.0840 
    111 H111       29.8401  -42.3996  -51.8250 H         1 UNK         0.0840 
    112 H112       29.0495  -47.3658  -51.7559 H         1 UNK         0.2987 
    113 H113       30.8455  -48.7972  -51.7368 H         1 UNK         0.0785 
    114 H114       28.8275  -50.1399  -51.1506 H         1 UNK         0.0798 
    115 H115       29.0895  -51.1940  -52.5314 H         1 UNK         0.0798 
    116 H116       30.2455  -51.1710  -51.2017 H         1 UNK         0.0798 
    117 H117       31.2734  -50.9437  -53.6744 H         1 UNK         0.3079 
    118 H118       33.5332  -51.0666  -54.4848 H         1 UNK         0.0794 
    119 H119       31.7109  -50.5713  -56.1729 H         1 UNK         0.0786 
    120 H120       33.2890  -50.5900  -56.9458 H         1 UNK         0.0786 
    121 H121       32.5045  -49.0551  -56.5800 H         1 UNK         0.0786 
    122 H122       34.5271  -48.3224  -54.7908 H         1 UNK         0.3032 
    123 H123       37.7699  -49.3250  -54.1746 H         1 UNK         0.1094 
    124 H124       37.9622  -49.4684  -56.6645 H         1 UNK         0.0794 
    125 H125       36.9250  -48.0600  -56.8432 H         1 UNK         0.0794 
    126 H126       38.5099  -47.9053  -56.0831 H         1 UNK         0.0794 
    127 H127       36.5481  -46.7728  -54.7672 H         1 UNK         0.3016 
@<TRIPOS>BOND
     1    1    2 1    
     2    1   67 1    
     3    1   68 1    
     4    1   69 1    
     5    2    3 2    
     6    2    4 am   BACKBONE|DICT|INTERRES
     7    4    5 1    
     8    4   70 1    
     9    5    6 1    
    10    5   65 1    
    11    5   71 1    
    12    6    7 1    
    13    6   72 1    
    14    6   73 1    
    15    7    8 1    
    16    8    9 1    
    17    8   74 1    
    18    8   75 1    
    19    9   10 ar   
    20    9   14 ar   
    21   10   11 ar   
    22   10   76 1    
    23   11   12 ar   
    24   11   48 1    
    25   12   13 ar   
    26   12   77 1    
    27   13   14 ar   
    28   13   15 1    
    29   14   78 1    
    30   15   16 1    
    31   15   79 1    
    32   15   80 1    
    33   16   17 1    
    34   17   18 1    
    35   17   81 1    
    36   17   82 1    
    37   18   19 1    
    38   18   22 1    
    39   18   83 1    
    40   19   20 am   BACKBONE|DICT|INTERRES
    41   19   21 2    
    42   20   84 1    
    43   20   85 1    
    44   22   23 am   BACKBONE|DICT|INTERRES
    45   22   86 1    
    46   23   24 2    
    47   23   25 1    
    48   25   26 1    
    49   25   27 1    
    50   25   87 1    
    51   26   88 1    
    52   26   89 1    
    53   26   90 1    
    54   27   28 am   BACKBONE|DICT|INTERRES
    55   27   91 1    
    56   28   29 2    
    57   28   30 1    
    58   30   31 1    
    59   30   32 1    
    60   30   92 1    
    61   31   93 1    
    62   31   94 1    
    63   31   95 1    
    64   32   33 am   BACKBONE|DICT|INTERRES
    65   32   96 1    
    66   33   34 2    
    67   33   35 1    
    68   35   36 1    
    69   35   37 1    
    70   35   97 1    
    71   36   98 1    
    72   36   99 1    
    73   36  100 1    
    74   37   38 am   BACKBONE|DICT|INTERRES
    75   37  101 1    
    76   38   39 2    
    77   38   40 1    
    78   40   41 1    
    79   40   42 1    
    80   40  102 1    
    81   41  103 1    
    82   41  104 1    
    83   41  105 1    
    84   42   43 am   BACKBONE|DICT|INTERRES
    85   42  106 1    
    86   43   44 2    
    87   43   45 1    
    88   45   46 1    
    89   45   49 1    
    90   45  107 1    
    91   46   47 1    
    92   46  108 1    
    93   46  109 1    
    94   47   48 1    
    95   48  110 1    
    96   48  111 1    
    97   49   50 am   BACKBONE|DICT|INTERRES
    98   49  112 1    
    99   50   51 2    
   100   50   52 1    
   101   52   53 1    
   102   52   54 1    
   103   52  113 1    
   104   53  114 1    
   105   53  115 1    
   106   53  116 1    
   107   54   55 am   BACKBONE|DICT|INTERRES
   108   54  117 1    
   109   55   56 2    
   110   55   57 1    
   111   57   58 1    
   112   57   59 1    
   113   57  118 1    
   114   58  119 1    
   115   58  120 1    
   116   58  121 1    
   117   59   60 am   BACKBONE|DICT|INTERRES
   118   59  122 1    
   119   60   61 2    
   120   60   62 1    
   121   62   63 1    
   122   62   64 1    
   123   62  123 1    
   124   63  124 1    
   125   63  125 1    
   126   63  126 1    
   127   64   65 am   BACKBONE|DICT|INTERRES
   128   64  127 1    
   129   65   66 2    
@<TRIPOS>SUBSTRUCTURE
     1 UNK         1 GROUP             0       ****    0 ROOT    
