@<TRIPOS>MOLECULE
3R134
127   129    1
SMALL
USER_CHARGES


@<TRIPOS>ATOM
      1 CA         28.0900  -46.2404  -50.5910 C.3       0 UNK        -0.1968 
      2 C          29.6045  -46.1061  -50.5496 C.2       0 UNK         0.4852 
      3 O          30.2237  -46.4942  -49.5573 O.2       0 UNK        -0.5359 
      4 N          30.2043  -45.5594  -51.6156 N.am      1 UNK        -0.4300 
      5 CA         31.6566  -45.4449  -51.7848 C.3       1 UNK         0.0863 
      6 C6         32.0371  -44.5527  -52.9878 C.3       11 UNK        -0.0953 
      7 S7         31.4885  -42.8242  -52.8200 S.3       11 UNK        -0.2369 
      8 C8         32.6242  -41.9760  -53.9683 C.3       11 UNK         0.0226 
      9 C9         32.5047  -42.5153  -55.3874 C.ar      11 UNK        -0.0699 
     10 C10        33.3576  -43.5346  -55.8214 C.ar      11 UNK        -0.0804 
     11 C11        33.2111  -44.0882  -57.0943 C.ar      11 UNK        -0.0871 
     12 C12        32.2350  -43.5809  -57.9571 C.ar      11 UNK        -0.1008 
     13 C13        31.3840  -42.5535  -57.5417 C.ar      11 UNK        -0.0735 
     14 C14        31.5260  -42.0205  -56.2554 C.ar      11 UNK        -0.0945 
     15 C15        30.3087  -42.0363  -58.4874 C.3       11 UNK         0.0169 
     16 S16        28.8073  -43.0719  -58.4465 S.3       11 UNK        -0.2669 
     17 C17        28.0867  -42.5961  -56.8390 C.3       11 UNK        -0.0850 
     18 CA         28.1234  -43.7581  -55.8019 C.3       10 UNK         0.0855 
     19 C          27.9519  -43.2629  -54.3292 C.2       10 UNK         0.5543 
     20 N          27.4342  -44.0746  -53.4127 N.am      10 UNK        -0.7343 
     21 O          28.2969  -42.1307  -54.0021 O.2       10 UNK        -0.5027 
     22 N          27.2276  -44.8750  -56.1614 N.am      10 UNK        -0.4495 
     23 C          25.8850  -44.8219  -56.1552 C.2       10 UNK         0.4903 
     24 O          25.2368  -43.7855  -56.0052 O.2       10 UNK        -0.4860 
     25 CA         25.1160  -46.1491  -56.2853 C.3       9 UNK         0.0227 
     26 CB         24.5633  -46.3140  -57.7082 C.3       9 UNK        -0.1964 
     27 N          25.8939  -47.3320  -55.8945 N.am      9 UNK        -0.4231 
     28 C          26.3418  -47.5652  -54.6492 C.2       9 UNK         0.5014 
     29 O          26.1353  -46.7937  -53.7104 O.2       9 UNK        -0.5270 
     30 CA         27.2141  -48.8119  -54.3977 C.3       8 UNK         0.0284 
     31 CB         26.8892  -49.4996  -53.0552 C.3       8 UNK        -0.1977 
     32 N          27.2415  -49.7799  -55.4994 N.am      8 UNK        -0.4342 
     33 C          26.2502  -50.5468  -55.9716 C.2       8 UNK         0.5039 
     34 O          25.1143  -50.5882  -55.4969 O.2       8 UNK        -0.5547 
     35 CA         26.6121  -51.3766  -57.2209 C.3       7 UNK         0.0281 
     36 CB         25.3842  -52.0198  -57.9007 C.3       7 UNK        -0.1963 
     37 N          27.4085  -50.5981  -58.1838 N.am      7 UNK        -0.4444 
     38 C          27.0359  -49.4652  -58.8008 C.2       7 UNK         0.5104 
     39 O          25.9175  -48.9657  -58.6916 O.2       7 UNK        -0.5100 
     40 CA         28.1214  -48.7497  -59.6306 C.3       6 UNK         0.0396 
     41 CB         27.6869  -47.3539  -60.1278 C.3       6 UNK        -0.1801 
     42 N          29.4056  -48.6650  -58.9235 N.am      6 UNK        -0.4747 
     43 C          29.6350  -48.0831  -57.7353 C.2       6 UNK         0.5012 
     44 O          28.7814  -47.4908  -57.0690 O.2       6 UNK        -0.5003 
     45 CA         31.0721  -48.1956  -57.1893 C.3       5 UNK         0.0782 
     46 C46        31.7231  -46.7973  -57.1831 C.3       11 UNK        -0.0868 
     47 S47        33.4861  -46.8190  -56.7218 S.3       11 UNK        -0.2515 
     48 C48        34.0647  -45.2779  -57.5107 C.3       11 UNK         0.0199 
     49 N          31.1132  -48.8318  -55.8667 N.am      5 UNK        -0.4607 
     50 C          30.5940  -50.0271  -55.5551 C.2       4 UNK         0.5031 
     51 O          29.9652  -50.7305  -56.3489 O.2       4 UNK        -0.5119 
     52 CA         30.7959  -50.4969  -54.1045 C.3       4 UNK         0.0263 
     53 CB         30.2577  -51.9207  -53.8447 C.3       4 UNK        -0.1967 
     54 N          32.1897  -50.3594  -53.6643 N.am      4 UNK        -0.4237 
     55 C          33.2649  -50.9959  -54.1554 C.2       3 UNK         0.4908 
     56 O          33.2193  -51.8091  -55.0798 O.2       3 UNK        -0.5102 
     57 CA         34.6210  -50.6452  -53.5151 C.3       3 UNK         0.0241 
     58 CB         35.7492  -51.5842  -53.9848 C.3       3 UNK        -0.1971 
     59 N          34.9943  -49.2723  -53.8612 N.am      3 UNK        -0.4139 
     60 C          34.8959  -48.1564  -53.1257 C.2       2 UNK         0.5016 
     61 O          35.2775  -47.0704  -53.5631 O.2       2 UNK        -0.5319 
     62 CA         34.3285  -48.2031  -51.6886 C.3       2 UNK         0.0286 
     63 CB         35.4690  -48.2616  -50.6599 C.3       2 UNK        -0.1963 
     64 N          33.5035  -47.0216  -51.4314 N.am      2 UNK        -0.4790 
     65 C          32.2953  -46.8331  -51.9773 C.2       1 UNK         0.5024 
     66 O          31.7174  -47.6860  -52.6570 O.2       1 UNK        -0.4888 
     67 H67        27.7138  -46.2247  -51.6124 H         1 UNK         0.0892 
     68 H68        27.7814  -47.1829  -50.1395 H         1 UNK         0.0892 
     69 H69        27.6229  -45.4268  -50.0369 H         1 UNK         0.0892 
     70 H70        29.6478  -45.2462  -52.3976 H         1 UNK         0.3107 
     71 H71        32.0658  -44.9983  -50.8758 H         1 UNK         0.0773 
     72 H72        31.6244  -44.9567  -53.9151 H         1 UNK         0.0680 
     73 H73        33.1220  -44.5450  -53.1090 H         1 UNK         0.0680 
     74 H74        32.4032  -40.9078  -53.9584 H         1 UNK         0.0650 
     75 H75        33.6480  -42.0797  -53.6057 H         1 UNK         0.0650 
     76 H76        34.1080  -43.9340  -55.1529 H         1 UNK         0.1397 
     77 H77        32.1124  -44.0075  -58.9434 H         1 UNK         0.1363 
     78 H78        30.8650  -41.2339  -55.9187 H         1 UNK         0.1355 
     79 H79        30.0537  -41.0014  -58.2542 H         1 UNK         0.0707 
     80 H80        30.6968  -42.0265  -59.5071 H         1 UNK         0.0707 
     81 H81        27.0660  -42.2497  -57.0025 H         1 UNK         0.1034 
     82 H82        28.6225  -41.7223  -56.4688 H         1 UNK         0.1034 
     83 H83        29.1311  -44.1755  -55.8211 H         1 UNK         0.0482 
     84 H84        27.0622  -44.9836  -53.6647 H         1 UNK         0.3460 
     85 H85        27.3050  -43.7206  -52.4790 H         1 UNK         0.3460 
     86 H86        27.6771  -45.7685  -56.3280 H         1 UNK         0.2989 
     87 H87        24.2630  -46.0909  -55.6060 H         1 UNK         0.0559 
     88 H88        23.9130  -45.4791  -57.9725 H         1 UNK         0.0848 
     89 H89        23.9731  -47.2255  -57.8040 H         1 UNK         0.0848 
     90 H90        25.3606  -46.3480  -58.4494 H         1 UNK         0.0848 
     91 H91        26.1239  -47.9902  -56.6291 H         1 UNK         0.3144 
     92 H92        28.2325  -48.4286  -54.3242 H         1 UNK         0.0727 
     93 H93        27.5422  -50.3535  -52.8766 H         1 UNK         0.0790 
     94 H94        25.8579  -49.8517  -53.0207 H         1 UNK         0.0790 
     95 H95        27.0234  -48.8123  -52.2192 H         1 UNK         0.0790 
     96 H96        28.1246  -49.8423  -55.9951 H         1 UNK         0.3215 
     97 H97        27.2565  -52.1850  -56.8710 H         1 UNK         0.0863 
     98 H98        25.6745  -52.6055  -58.7727 H         1 UNK         0.0808 
     99 H99        24.6591  -51.2723  -58.2239 H         1 UNK         0.0808 
    100 H100       24.8690  -52.6935  -57.2150 H         1 UNK         0.0808 
    101 H101       28.3695  -50.8966  -58.2934 H         1 UNK         0.3118 
    102 H102       28.2884  -49.3736  -60.5098 H         1 UNK         0.0546 
    103 H103       27.5292  -46.6583  -59.3035 H         1 UNK         0.0828 
    104 H104       26.7555  -47.4086  -60.6927 H         1 UNK         0.0828 
    105 H105       28.4379  -46.9191  -60.7869 H         1 UNK         0.0828 
    106 H106       30.1752  -49.1356  -59.3804 H         1 UNK         0.3005 
    107 H107       31.6487  -48.8358  -57.8603 H         1 UNK         0.1257 
    108 H108       31.6399  -46.3504  -58.1757 H         1 UNK         0.0775 
    109 H109       31.1968  -46.1278  -56.4986 H         1 UNK         0.0775 
    110 H110       35.1048  -45.1021  -57.2323 H         1 UNK         0.0840 
    111 H111       34.0535  -45.4012  -58.5948 H         1 UNK         0.0840 
    112 H112       31.5926  -48.3122  -55.1444 H         1 UNK         0.2987 
    113 H113       30.2122  -49.8159  -53.4834 H         1 UNK         0.0785 
    114 H114       30.3875  -52.2096  -52.8019 H         1 UNK         0.0798 
    115 H115       30.7575  -52.6654  -54.4649 H         1 UNK         0.0798 
    116 H116       29.1915  -51.9805  -54.0665 H         1 UNK         0.0798 
    117 H117       32.3241  -49.6252  -52.9790 H         1 UNK         0.3079 
    118 H118       34.5360  -50.7891  -52.4386 H         1 UNK         0.0794 
    119 H119       35.5138  -52.6242  -53.7545 H         1 UNK         0.0786 
    120 H120       36.6908  -51.3498  -53.4877 H         1 UNK         0.0786 
    121 H121       35.9151  -51.5174  -55.0609 H         1 UNK         0.0786 
    122 H122       35.3400  -49.1606  -54.8036 H         1 UNK         0.3032 
    123 H123       33.6864  -49.0695  -51.5397 H         1 UNK         0.1094 
    124 H124       36.1327  -47.3996  -50.7421 H         1 UNK         0.0794 
    125 H125       35.0844  -48.2936  -49.6402 H         1 UNK         0.0794 
    126 H126       36.0775  -49.1554  -50.8043 H         1 UNK         0.0794 
    127 H127       33.9416  -46.2635  -50.9280 H         1 UNK         0.3016 
@<TRIPOS>BOND
     1    1    2 1    
     2    1   67 1    
     3    1   68 1    
     4    1   69 1    
     5    2    3 2    
     6    2    4 am   BACKBONE|DICT|INTERRES
     7    4    5 1    
     8    4   70 1    
     9    5    6 1    
    10    5   65 1    
    11    5   71 1    
    12    6    7 1    
    13    6   72 1    
    14    6   73 1    
    15    7    8 1    
    16    8    9 1    
    17    8   74 1    
    18    8   75 1    
    19    9   10 ar   
    20    9   14 ar   
    21   10   11 ar   
    22   10   76 1    
    23   11   12 ar   
    24   11   48 1    
    25   12   13 ar   
    26   12   77 1    
    27   13   14 ar   
    28   13   15 1    
    29   14   78 1    
    30   15   16 1    
    31   15   79 1    
    32   15   80 1    
    33   16   17 1    
    34   17   18 1    
    35   17   81 1    
    36   17   82 1    
    37   18   19 1    
    38   18   22 1    
    39   18   83 1    
    40   19   20 am   BACKBONE|DICT|INTERRES
    41   19   21 2    
    42   20   84 1    
    43   20   85 1    
    44   22   23 am   BACKBONE|DICT|INTERRES
    45   22   86 1    
    46   23   24 2    
    47   23   25 1    
    48   25   26 1    
    49   25   27 1    
    50   25   87 1    
    51   26   88 1    
    52   26   89 1    
    53   26   90 1    
    54   27   28 am   BACKBONE|DICT|INTERRES
    55   27   91 1    
    56   28   29 2    
    57   28   30 1    
    58   30   31 1    
    59   30   32 1    
    60   30   92 1    
    61   31   93 1    
    62   31   94 1    
    63   31   95 1    
    64   32   33 am   BACKBONE|DICT|INTERRES
    65   32   96 1    
    66   33   34 2    
    67   33   35 1    
    68   35   36 1    
    69   35   37 1    
    70   35   97 1    
    71   36   98 1    
    72   36   99 1    
    73   36  100 1    
    74   37   38 am   BACKBONE|DICT|INTERRES
    75   37  101 1    
    76   38   39 2    
    77   38   40 1    
    78   40   41 1    
    79   40   42 1    
    80   40  102 1    
    81   41  103 1    
    82   41  104 1    
    83   41  105 1    
    84   42   43 am   BACKBONE|DICT|INTERRES
    85   42  106 1    
    86   43   44 2    
    87   43   45 1    
    88   45   46 1    
    89   45   49 1    
    90   45  107 1    
    91   46   47 1    
    92   46  108 1    
    93   46  109 1    
    94   47   48 1    
    95   48  110 1    
    96   48  111 1    
    97   49   50 am   BACKBONE|DICT|INTERRES
    98   49  112 1    
    99   50   51 2    
   100   50   52 1    
   101   52   53 1    
   102   52   54 1    
   103   52  113 1    
   104   53  114 1    
   105   53  115 1    
   106   53  116 1    
   107   54   55 am   BACKBONE|DICT|INTERRES
   108   54  117 1    
   109   55   56 2    
   110   55   57 1    
   111   57   58 1    
   112   57   59 1    
   113   57  118 1    
   114   58  119 1    
   115   58  120 1    
   116   58  121 1    
   117   59   60 am   BACKBONE|DICT|INTERRES
   118   59  122 1    
   119   60   61 2    
   120   60   62 1    
   121   62   63 1    
   122   62   64 1    
   123   62  123 1    
   124   63  124 1    
   125   63  125 1    
   126   63  126 1    
   127   64   65 am   BACKBONE|DICT|INTERRES
   128   64  127 1    
   129   65   66 2    
@<TRIPOS>SUBSTRUCTURE
     1 UNK         1 GROUP             0       ****    0 ROOT    
