@<TRIPOS>MOLECULE
3R134
127   129    1
SMALL
USER_CHARGES


@<TRIPOS>ATOM
      1 CA         37.3392  -43.0791  -54.7355 C.3       0 UNK        -0.1968 
      2 C          37.3943  -44.5984  -54.8036 C.2       0 UNK         0.4852 
      3 O          38.4840  -45.1730  -54.7672 O.2       0 UNK        -0.5359 
      4 N          36.2293  -45.2495  -54.9086 N.am      1 UNK        -0.4300 
      5 CA         36.0797  -46.7068  -54.9003 C.3       1 UNK         0.0863 
      6 C6         34.7827  -47.1462  -55.6334 C.3       11 UNK        -0.0953 
      7 S7         33.2281  -46.6687  -54.8010 S.3       11 UNK        -0.2369 
      8 C8         32.6996  -45.2232  -55.7805 C.3       11 UNK         0.0226 
      9 C9         31.4295  -44.5305  -55.2807 C.ar      11 UNK        -0.0699 
     10 C10        30.9217  -44.7134  -53.9873 C.ar      11 UNK        -0.0804 
     11 C11        29.7545  -44.0624  -53.5721 C.ar      11 UNK        -0.0871 
     12 C12        29.1107  -43.1864  -54.4510 C.ar      11 UNK        -0.1008 
     13 C13        29.6172  -42.9720  -55.7356 C.ar      11 UNK        -0.0735 
     14 C14        30.7685  -43.6516  -56.1434 C.ar      11 UNK        -0.0945 
     15 C15        28.9505  -41.9809  -56.6774 C.3       11 UNK         0.0169 
     16 S16        27.6729  -42.7729  -57.7018 S.3       11 UNK        -0.2669 
     17 C17        26.1661  -42.5758  -56.6842 C.3       11 UNK        -0.0850 
     18 CA         25.7251  -43.8763  -55.9471 C.3       10 UNK         0.0855 
     19 C          24.4672  -43.6739  -55.0493 C.2       10 UNK         0.5543 
     20 N          24.4338  -42.6220  -54.2413 N.am      10 UNK        -0.7343 
     21 O          23.5328  -44.4736  -55.0395 O.2       10 UNK        -0.5027 
     22 N          25.6213  -45.0460  -56.8315 N.am      10 UNK        -0.4495 
     23 C          24.8439  -45.1924  -57.9124 C.2       10 UNK         0.4903 
     24 O          24.0948  -44.3199  -58.3560 O.2       10 UNK        -0.4860 
     25 CA         24.9301  -46.5662  -58.6071 C.3       9 UNK         0.0227 
     26 CB         24.2956  -46.5884  -60.0142 C.3       9 UNK        -0.1964 
     27 N          26.3018  -47.0895  -58.6183 N.am      9 UNK        -0.4231 
     28 C          27.3693  -46.6015  -59.2700 C.2       9 UNK         0.5014 
     29 O          27.3228  -45.6833  -60.0892 O.2       9 UNK        -0.5270 
     30 CA         28.7356  -47.2392  -58.9453 C.3       8 UNK         0.0284 
     31 CB         29.5282  -46.3368  -57.9859 C.3       8 UNK        -0.1977 
     32 N          28.6385  -48.5797  -58.3606 N.am      8 UNK        -0.4342 
     33 C          28.2302  -49.6746  -59.0179 C.2       8 UNK         0.5039 
     34 O          27.9542  -49.6944  -60.2178 O.2       8 UNK        -0.5547 
     35 CA         28.0715  -50.9553  -58.1849 C.3       7 UNK         0.0281 
     36 CB         29.4174  -51.6836  -58.0437 C.3       7 UNK        -0.1963 
     37 N          27.5154  -50.6692  -56.8594 N.am      7 UNK        -0.4444 
     38 C          26.2211  -50.4048  -56.6282 C.2       7 UNK         0.5104 
     39 O          25.3520  -50.4246  -57.4993 O.2       7 UNK        -0.5100 
     40 CA         25.8279  -50.0328  -55.1874 C.3       6 UNK         0.0396 
     41 CB         25.4842  -51.2947  -54.3808 C.3       6 UNK        -0.1801 
     42 N          26.8611  -49.2697  -54.4828 N.am      6 UNK        -0.4747 
     43 C          27.2341  -48.0205  -54.7990 C.2       6 UNK         0.5012 
     44 O          26.7333  -47.3706  -55.7144 O.2       6 UNK        -0.5003 
     45 CA         28.3925  -47.4135  -53.9867 C.3       5 UNK         0.0782 
     46 C46        27.8456  -46.6914  -52.7293 C.3       11 UNK        -0.0868 
     47 S47        29.1549  -46.0165  -51.6511 S.3       11 UNK        -0.2515 
     48 C48        29.2098  -44.2653  -52.1615 C.3       11 UNK         0.0199 
     49 N          29.4308  -48.4006  -53.6694 N.am      5 UNK        -0.4607 
     50 C          30.1505  -49.0913  -54.5627 C.2       4 UNK         0.5031 
     51 O          29.9453  -49.0435  -55.7775 O.2       4 UNK        -0.5119 
     52 CA         31.2765  -49.9813  -54.0008 C.3       4 UNK         0.0263 
     53 CB         32.2105  -50.5172  -55.1013 C.3       4 UNK        -0.1967 
     54 N          32.0869  -49.2739  -53.0070 N.am      4 UNK        -0.4237 
     55 C          31.7927  -49.1310  -51.7083 C.2       3 UNK         0.4908 
     56 O          30.7552  -49.5643  -51.2042 O.2       3 UNK        -0.5102 
     57 CA         32.8037  -48.3477  -50.8440 C.3       3 UNK         0.0241 
     58 CB         32.7198  -48.7224  -49.3492 C.3       3 UNK        -0.1971 
     59 N          34.1915  -48.4318  -51.3234 N.am      3 UNK        -0.4139 
     60 C          34.9472  -49.5299  -51.4796 C.2       2 UNK         0.5016 
     61 O          34.5611  -50.6710  -51.2202 O.2       2 UNK        -0.5319 
     62 CA         36.3640  -49.3081  -52.0549 C.3       2 UNK         0.0286 
     63 CB         37.1362  -50.6265  -52.2535 C.3       2 UNK        -0.1963 
     64 N          36.3411  -48.5799  -53.3301 N.am      2 UNK        -0.4790 
     65 C          36.1611  -47.2588  -53.4595 C.2       1 UNK         0.5024 
     66 O          36.0028  -46.5071  -52.4926 O.2       1 UNK        -0.4888 
     67 H67        37.9071  -42.6455  -55.5582 H         1 UNK         0.0892 
     68 H68        36.3173  -42.7045  -54.7948 H         1 UNK         0.0892 
     69 H69        37.7740  -42.7301  -53.7993 H         1 UNK         0.0892 
     70 H70        35.3658  -44.7290  -54.8743 H         1 UNK         0.3107 
     71 H71        36.9221  -47.1318  -55.4507 H         1 UNK         0.0773 
     72 H72        34.7816  -46.7515  -56.6507 H         1 UNK         0.0680 
     73 H73        34.7722  -48.2310  -55.7503 H         1 UNK         0.0680 
     74 H74        32.5496  -45.5496  -56.8107 H         1 UNK         0.0650 
     75 H75        33.5060  -44.4899  -55.7981 H         1 UNK         0.0650 
     76 H76        31.4257  -45.3659  -53.2897 H         1 UNK         0.1397 
     77 H77        28.2238  -42.6567  -54.1323 H         1 UNK         0.1363 
     78 H78        31.1584  -43.4863  -57.1387 H         1 UNK         0.1355 
     79 H79        29.7008  -41.5490  -57.3416 H         1 UNK         0.0707 
     80 H80        28.5337  -41.1411  -56.1200 H         1 UNK         0.0707 
     81 H81        26.3276  -41.7651  -55.9739 H         1 UNK         0.1034 
     82 H82        25.3663  -42.2279  -57.3396 H         1 UNK         0.1034 
     83 H83        26.5201  -44.1442  -55.2514 H         1 UNK         0.0482 
     84 H84        23.6285  -42.4934  -53.6484 H         1 UNK         0.3460 
     85 H85        25.1906  -41.9590  -54.2004 H         1 UNK         0.3460 
     86 H86        26.1368  -45.8641  -56.5153 H         1 UNK         0.2989 
     87 H87        24.3582  -47.2541  -57.9825 H         1 UNK         0.0559 
     88 H88        23.2329  -46.3485  -59.9645 H         1 UNK         0.0848 
     89 H89        24.3846  -47.5725  -60.4741 H         1 UNK         0.0848 
     90 H90        24.7585  -45.8613  -60.6817 H         1 UNK         0.0848 
     91 H91        26.4869  -47.8087  -57.9310 H         1 UNK         0.3144 
     92 H92        29.2931  -47.3195  -59.8807 H         1 UNK         0.0727 
     93 H93        28.9999  -46.1855  -57.0441 H         1 UNK         0.0790 
     94 H94        29.6900  -45.3516  -58.4250 H         1 UNK         0.0790 
     95 H95        30.5074  -46.7574  -57.7566 H         1 UNK         0.0790 
     96 H96        28.9289  -48.6790  -57.3905 H         1 UNK         0.3215 
     97 H97        27.3829  -51.6181  -58.7141 H         1 UNK         0.0863 
     98 H98        29.3221  -52.5877  -57.4421 H         1 UNK         0.0808 
     99 H99        30.1743  -51.0487  -57.5843 H         1 UNK         0.0808 
    100 H100       29.7984  -51.9829  -59.0210 H         1 UNK         0.0808 
    101 H101       28.1729  -50.5743  -56.0980 H         1 UNK         0.3118 
    102 H102       24.9317  -49.4106  -55.2411 H         1 UNK         0.0546 
    103 H103       26.3467  -51.9530  -54.2691 H         1 UNK         0.0828 
    104 H104       24.6981  -51.8693  -54.8729 H         1 UNK         0.0828 
    105 H105       25.1216  -51.0428  -53.3841 H         1 UNK         0.0828 
    106 H106       27.3330  -49.7306  -53.7176 H         1 UNK         0.3005 
    107 H107       28.8617  -46.6638  -54.6272 H         1 UNK         0.1257 
    108 H108       27.2535  -47.3796  -52.1227 H         1 UNK         0.0775 
    109 H109       27.1681  -45.8849  -53.0171 H         1 UNK         0.0775 
    110 H110       28.2115  -43.8363  -52.0614 H         1 UNK         0.0840 
    111 H111       29.8481  -43.7207  -51.4646 H         1 UNK         0.0840 
    112 H112       29.6590  -48.5121  -52.6882 H         1 UNK         0.2987 
    113 H113       30.8004  -50.8389  -53.5211 H         1 UNK         0.0785 
    114 H114       31.6700  -51.1673  -55.7887 H         1 UNK         0.0798 
    115 H115       33.0256  -51.1059  -54.6799 H         1 UNK         0.0798 
    116 H116       32.6474  -49.7092  -55.6895 H         1 UNK         0.0798 
    117 H117       32.9204  -48.8222  -53.3552 H         1 UNK         0.3079 
    118 H118       32.5171  -47.2988  -50.9356 H         1 UNK         0.0794 
    119 H119       33.4234  -48.1404  -48.7541 H         1 UNK         0.0786 
    120 H120       32.9343  -49.7790  -49.1851 H         1 UNK         0.0786 
    121 H121       31.7233  -48.5271  -48.9508 H         1 UNK         0.0786 
    122 H122       34.6217  -47.5501  -51.5911 H         1 UNK         0.3032 
    123 H123       36.9123  -48.7137  -51.3199 H         1 UNK         0.1094 
    124 H124       36.6420  -51.2804  -52.9732 H         1 UNK         0.0794 
    125 H125       38.1510  -50.4431  -52.6072 H         1 UNK         0.0794 
    126 H126       37.2186  -51.1770  -51.3153 H         1 UNK         0.0794 
    127 H127       36.4304  -49.1418  -54.1651 H         1 UNK         0.3016 
@<TRIPOS>BOND
     1    1    2 1    
     2    1   67 1    
     3    1   68 1    
     4    1   69 1    
     5    2    3 2    
     6    2    4 am   BACKBONE|DICT|INTERRES
     7    4    5 1    
     8    4   70 1    
     9    5    6 1    
    10    5   65 1    
    11    5   71 1    
    12    6    7 1    
    13    6   72 1    
    14    6   73 1    
    15    7    8 1    
    16    8    9 1    
    17    8   74 1    
    18    8   75 1    
    19    9   10 ar   
    20    9   14 ar   
    21   10   11 ar   
    22   10   76 1    
    23   11   12 ar   
    24   11   48 1    
    25   12   13 ar   
    26   12   77 1    
    27   13   14 ar   
    28   13   15 1    
    29   14   78 1    
    30   15   16 1    
    31   15   79 1    
    32   15   80 1    
    33   16   17 1    
    34   17   18 1    
    35   17   81 1    
    36   17   82 1    
    37   18   19 1    
    38   18   22 1    
    39   18   83 1    
    40   19   20 am   BACKBONE|DICT|INTERRES
    41   19   21 2    
    42   20   84 1    
    43   20   85 1    
    44   22   23 am   BACKBONE|DICT|INTERRES
    45   22   86 1    
    46   23   24 2    
    47   23   25 1    
    48   25   26 1    
    49   25   27 1    
    50   25   87 1    
    51   26   88 1    
    52   26   89 1    
    53   26   90 1    
    54   27   28 am   BACKBONE|DICT|INTERRES
    55   27   91 1    
    56   28   29 2    
    57   28   30 1    
    58   30   31 1    
    59   30   32 1    
    60   30   92 1    
    61   31   93 1    
    62   31   94 1    
    63   31   95 1    
    64   32   33 am   BACKBONE|DICT|INTERRES
    65   32   96 1    
    66   33   34 2    
    67   33   35 1    
    68   35   36 1    
    69   35   37 1    
    70   35   97 1    
    71   36   98 1    
    72   36   99 1    
    73   36  100 1    
    74   37   38 am   BACKBONE|DICT|INTERRES
    75   37  101 1    
    76   38   39 2    
    77   38   40 1    
    78   40   41 1    
    79   40   42 1    
    80   40  102 1    
    81   41  103 1    
    82   41  104 1    
    83   41  105 1    
    84   42   43 am   BACKBONE|DICT|INTERRES
    85   42  106 1    
    86   43   44 2    
    87   43   45 1    
    88   45   46 1    
    89   45   49 1    
    90   45  107 1    
    91   46   47 1    
    92   46  108 1    
    93   46  109 1    
    94   47   48 1    
    95   48  110 1    
    96   48  111 1    
    97   49   50 am   BACKBONE|DICT|INTERRES
    98   49  112 1    
    99   50   51 2    
   100   50   52 1    
   101   52   53 1    
   102   52   54 1    
   103   52  113 1    
   104   53  114 1    
   105   53  115 1    
   106   53  116 1    
   107   54   55 am   BACKBONE|DICT|INTERRES
   108   54  117 1    
   109   55   56 2    
   110   55   57 1    
   111   57   58 1    
   112   57   59 1    
   113   57  118 1    
   114   58  119 1    
   115   58  120 1    
   116   58  121 1    
   117   59   60 am   BACKBONE|DICT|INTERRES
   118   59  122 1    
   119   60   61 2    
   120   60   62 1    
   121   62   63 1    
   122   62   64 1    
   123   62  123 1    
   124   63  124 1    
   125   63  125 1    
   126   63  126 1    
   127   64   65 am   BACKBONE|DICT|INTERRES
   128   64  127 1    
   129   65   66 2    
@<TRIPOS>SUBSTRUCTURE
     1 UNK         1 GROUP             0       ****    0 ROOT    
