@<TRIPOS>MOLECULE
3R134
127   129    1
SMALL
USER_CHARGES


@<TRIPOS>ATOM
      1 CA         33.6547  -42.4241  -52.8707 C.3       0 UNK        -0.1968 
      2 C          34.6447  -43.4283  -53.4422 C.2       0 UNK         0.4852 
      3 O          35.6165  -43.0296  -54.0864 O.2       0 UNK        -0.5359 
      4 N          34.4033  -44.7210  -53.2002 N.am      1 UNK        -0.4300 
      5 CA         35.2263  -45.8485  -53.6402 C.3       1 UNK         0.0863 
      6 C6         34.6432  -46.5830  -54.8784 C.3       11 UNK        -0.0953 
      7 S7         34.3884  -45.5288  -56.3457 S.3       11 UNK        -0.2369 
      8 C8         32.6279  -45.8139  -56.7170 C.3       11 UNK         0.0226 
      9 C9         31.7040  -44.8893  -55.9352 C.ar      11 UNK        -0.0699 
     10 C10        31.4272  -45.1297  -54.5875 C.ar      11 UNK        -0.0804 
     11 C11        30.5401  -44.3129  -53.8747 C.ar      11 UNK        -0.0871 
     12 C12        29.9275  -43.2424  -54.5345 C.ar      11 UNK        -0.1008 
     13 C13        30.1932  -42.9914  -55.8839 C.ar      11 UNK        -0.0735 
     14 C14        31.0893  -43.8109  -56.5746 C.ar      11 UNK        -0.0945 
     15 C15        29.5182  -41.8385  -56.6086 C.3       11 UNK         0.0169 
     16 S16        28.0705  -42.4104  -57.5504 S.3       11 UNK        -0.2669 
     17 C17        26.7489  -42.2684  -56.2962 C.3       11 UNK        -0.0850 
     18 CA         25.3810  -42.8368  -56.7581 C.3       10 UNK         0.0855 
     19 C          24.7821  -42.0385  -57.9559 C.2       10 UNK         0.5543 
     20 N          24.6508  -42.6216  -59.1421 N.am      10 UNK        -0.7343 
     21 O          24.4216  -40.8746  -57.7976 O.2       10 UNK        -0.5027 
     22 N          25.4418  -44.2946  -56.9434 N.am      10 UNK        -0.4495 
     23 C          24.3781  -45.1059  -57.0183 C.2       10 UNK         0.4903 
     24 O          23.2193  -44.7166  -56.8657 O.2       10 UNK        -0.4860 
     25 CA         24.6320  -46.6049  -57.2776 C.3       9 UNK         0.0227 
     26 CB         23.6551  -47.1891  -58.3194 C.3       9 UNK        -0.1964 
     27 N          26.0203  -46.9499  -57.6093 N.am      9 UNK        -0.4231 
     28 C          26.7249  -46.6125  -58.7000 C.2       9 UNK         0.5014 
     29 O          26.2992  -45.8888  -59.6011 O.2       9 UNK        -0.5270 
     30 CA         28.1569  -47.1695  -58.7905 C.3       8 UNK         0.0284 
     31 CB         29.1385  -46.2533  -58.0464 C.3       8 UNK        -0.1977 
     32 N          28.2802  -48.5353  -58.2721 N.am      8 UNK        -0.4342 
     33 C          27.7299  -49.6178  -58.8420 C.2       8 UNK         0.5039 
     34 O          27.0949  -49.5930  -59.8970 O.2       8 UNK        -0.5547 
     35 CA         27.9061  -50.9530  -58.1038 C.3       7 UNK         0.0281 
     36 CB         29.2832  -51.5705  -58.4007 C.3       7 UNK        -0.1963 
     37 N          27.7338  -50.7874  -56.6598 N.am      7 UNK        -0.4444 
     38 C          26.5441  -50.7557  -56.0422 C.2       7 UNK         0.5104 
     39 O          25.4696  -50.9358  -56.6153 O.2       7 UNK        -0.5100 
     40 CA         26.5446  -50.4714  -54.5282 C.3       6 UNK         0.0396 
     41 CB         26.5555  -51.7880  -53.7358 C.3       6 UNK        -0.1801 
     42 N          27.6651  -49.6354  -54.0896 N.am      6 UNK        -0.4747 
     43 C          27.8269  -48.3442  -54.4155 C.2       6 UNK         0.5012 
     44 O          27.0299  -47.7090  -55.1032 O.2       6 UNK        -0.5003 
     45 CA         29.1231  -47.6625  -53.9375 C.3       5 UNK         0.0782 
     46 C46        28.9020  -47.0217  -52.5442 C.3       11 UNK        -0.0868 
     47 S47        30.4048  -46.2699  -51.8322 S.3       11 UNK        -0.2515 
     48 C48        30.2509  -44.5372  -52.3896 C.3       11 UNK         0.0199 
     49 N          30.2810  -48.5649  -53.9653 N.am      5 UNK        -0.4607 
     50 C          30.7409  -49.2261  -55.0362 C.2       4 UNK         0.5031 
     51 O          30.2258  -49.1318  -56.1514 O.2       4 UNK        -0.5119 
     52 CA         31.9491  -50.1654  -54.8380 C.3       4 UNK         0.0263 
     53 CB         33.0088  -49.9673  -55.9354 C.3       4 UNK        -0.1967 
     54 N          32.5822  -50.0565  -53.5159 N.am      4 UNK        -0.4237 
     55 C          32.1123  -50.6145  -52.3906 C.2       3 UNK         0.4908 
     56 O          31.0745  -51.2771  -52.3582 O.2       3 UNK        -0.5102 
     57 CA         32.8677  -50.3515  -51.0710 C.3       3 UNK         0.0241 
     58 CB         33.0940  -51.6524  -50.2716 C.3       3 UNK        -0.1971 
     59 N          34.1144  -49.5791  -51.1929 N.am      3 UNK        -0.4139 
     60 C          35.2748  -49.9504  -51.7523 C.2       2 UNK         0.5016 
     61 O          35.4428  -51.0141  -52.3501 O.2       2 UNK        -0.5319 
     62 CA         36.4264  -48.9283  -51.6586 C.3       2 UNK         0.0286 
     63 CB         37.8019  -49.5719  -51.9158 C.3       2 UNK        -0.1963 
     64 N          36.2403  -47.8207  -52.5999 N.am      2 UNK        -0.4790 
     65 C          35.3446  -46.8341  -52.4644 C.2       1 UNK         0.5024 
     66 O          34.5993  -46.7256  -51.4854 O.2       1 UNK        -0.4888 
     67 H67        33.1176  -42.8323  -52.0154 H         1 UNK         0.0892 
     68 H68        32.9271  -42.1437  -53.6324 H         1 UNK         0.0892 
     69 H69        34.1721  -41.5232  -52.5421 H         1 UNK         0.0892 
     70 H70        33.6501  -44.9854  -52.5791 H         1 UNK         0.3107 
     71 H71        36.2344  -45.4985  -53.8727 H         1 UNK         0.0773 
     72 H72        33.7078  -47.0763  -54.6172 H         1 UNK         0.0680 
     73 H73        35.3167  -47.3829  -55.1910 H         1 UNK         0.0680 
     74 H74        32.4841  -45.6632  -57.7878 H         1 UNK         0.0650 
     75 H75        32.3605  -46.8539  -56.5282 H         1 UNK         0.0650 
     76 H76        31.9007  -45.9634  -54.0950 H         1 UNK         0.1397 
     77 H77        29.2427  -42.6004  -53.9972 H         1 UNK         0.1363 
     78 H78        31.2893  -43.6198  -57.6200 H         1 UNK         0.1355 
     79 H79        30.2266  -41.3798  -57.3001 H         1 UNK         0.0707 
     80 H80        29.2273  -41.0536  -55.9087 H         1 UNK         0.0707 
     81 H81        26.6438  -41.2178  -56.0185 H         1 UNK         0.1034 
     82 H82        27.0693  -42.7827  -55.3890 H         1 UNK         0.1034 
     83 H83        24.6874  -42.6688  -55.9319 H         1 UNK         0.0482 
     84 H84        24.9676  -43.5702  -59.2772 H         1 UNK         0.3460 
     85 H85        24.2593  -42.1020  -59.9115 H         1 UNK         0.3460 
     86 H86        26.3587  -44.6824  -57.1060 H         1 UNK         0.2989 
     87 H87        24.4313  -47.1045  -56.3289 H         1 UNK         0.0559 
     88 H88        23.8285  -48.2549  -58.4697 H         1 UNK         0.0848 
     89 H89        23.7484  -46.6939  -59.2863 H         1 UNK         0.0848 
     90 H90        22.6200  -47.0737  -57.9957 H         1 UNK         0.0848 
     91 H91        26.5037  -47.4613  -56.8736 H         1 UNK         0.3144 
     92 H92        28.4395  -47.1861  -59.8452 H         1 UNK         0.0727 
     93 H93        30.1620  -46.6142  -58.1429 H         1 UNK         0.0790 
     94 H94        28.9070  -46.1832  -56.9832 H         1 UNK         0.0790 
     95 H95        29.1117  -45.2415  -58.4529 H         1 UNK         0.0790 
     96 H96        28.8520  -48.6663  -57.4415 H         1 UNK         0.3215 
     97 H97        27.1446  -51.6433  -58.4745 H         1 UNK         0.0863 
     98 H98        29.4014  -52.5331  -57.9030 H         1 UNK         0.0808 
     99 H99        30.1017  -50.9253  -58.0811 H         1 UNK         0.0808 
    100 H100       29.4067  -51.7426  -59.4707 H         1 UNK         0.0808 
    101 H101       28.5647  -50.5723  -56.1249 H         1 UNK         0.3118 
    102 H102       25.6190  -49.9411  -54.2940 H         1 UNK         0.0546 
    103 H103       26.4680  -51.6078  -52.6643 H         1 UNK         0.0828 
    104 H104       27.4702  -52.3569  -53.9079 H         1 UNK         0.0828 
    105 H105       25.7173  -52.4239  -54.0245 H         1 UNK         0.0828 
    106 H106       28.3765  -50.0807  -53.5261 H         1 UNK         0.3005 
    107 H107       29.3250  -46.8641  -54.6527 H         1 UNK         0.1257 
    108 H108       28.5540  -47.7730  -51.8322 H         1 UNK         0.0775 
    109 H109       28.1137  -46.2677  -52.5920 H         1 UNK         0.0775 
    110 H110       29.2528  -44.1748  -52.1382 H         1 UNK         0.0840 
    111 H111       30.9469  -43.9301  -51.8109 H         1 UNK         0.0840 
    112 H112       30.7552  -48.6942  -53.0844 H         1 UNK         0.2987 
    113 H113       31.5623  -51.1812  -54.9444 H         1 UNK         0.0785 
    114 H114       33.4235  -48.9618  -55.9305 H         1 UNK         0.0798 
    115 H115       32.5829  -50.1347  -56.9258 H         1 UNK         0.0798 
    116 H116       33.8338  -50.6707  -55.8203 H         1 UNK         0.0798 
    117 H117       33.4473  -49.5402  -53.4622 H         1 UNK         0.3079 
    118 H118       32.1993  -49.7240  -50.4793 H         1 UNK         0.0794 
    119 H119       33.7063  -52.3671  -50.8223 H         1 UNK         0.0786 
    120 H120       32.1471  -52.1454  -50.0476 H         1 UNK         0.0786 
    121 H121       33.5849  -51.4531  -49.3190 H         1 UNK         0.0786 
    122 H122       34.0748  -48.6335  -50.8248 H         1 UNK         0.3032 
    123 H123       36.4332  -48.5305  -50.6406 H         1 UNK         0.1094 
    124 H124       37.8851  -49.9633  -52.9305 H         1 UNK         0.0794 
    125 H125       38.6095  -48.8552  -51.7655 H         1 UNK         0.0794 
    126 H126       37.9772  -50.4029  -51.2310 H         1 UNK         0.0794 
    127 H127       36.8004  -47.8550  -53.4404 H         1 UNK         0.3016 
@<TRIPOS>BOND
     1    1    2 1    
     2    1   67 1    
     3    1   68 1    
     4    1   69 1    
     5    2    3 2    
     6    2    4 am   BACKBONE|DICT|INTERRES
     7    4    5 1    
     8    4   70 1    
     9    5    6 1    
    10    5   65 1    
    11    5   71 1    
    12    6    7 1    
    13    6   72 1    
    14    6   73 1    
    15    7    8 1    
    16    8    9 1    
    17    8   74 1    
    18    8   75 1    
    19    9   10 ar   
    20    9   14 ar   
    21   10   11 ar   
    22   10   76 1    
    23   11   12 ar   
    24   11   48 1    
    25   12   13 ar   
    26   12   77 1    
    27   13   14 ar   
    28   13   15 1    
    29   14   78 1    
    30   15   16 1    
    31   15   79 1    
    32   15   80 1    
    33   16   17 1    
    34   17   18 1    
    35   17   81 1    
    36   17   82 1    
    37   18   19 1    
    38   18   22 1    
    39   18   83 1    
    40   19   20 am   BACKBONE|DICT|INTERRES
    41   19   21 2    
    42   20   84 1    
    43   20   85 1    
    44   22   23 am   BACKBONE|DICT|INTERRES
    45   22   86 1    
    46   23   24 2    
    47   23   25 1    
    48   25   26 1    
    49   25   27 1    
    50   25   87 1    
    51   26   88 1    
    52   26   89 1    
    53   26   90 1    
    54   27   28 am   BACKBONE|DICT|INTERRES
    55   27   91 1    
    56   28   29 2    
    57   28   30 1    
    58   30   31 1    
    59   30   32 1    
    60   30   92 1    
    61   31   93 1    
    62   31   94 1    
    63   31   95 1    
    64   32   33 am   BACKBONE|DICT|INTERRES
    65   32   96 1    
    66   33   34 2    
    67   33   35 1    
    68   35   36 1    
    69   35   37 1    
    70   35   97 1    
    71   36   98 1    
    72   36   99 1    
    73   36  100 1    
    74   37   38 am   BACKBONE|DICT|INTERRES
    75   37  101 1    
    76   38   39 2    
    77   38   40 1    
    78   40   41 1    
    79   40   42 1    
    80   40  102 1    
    81   41  103 1    
    82   41  104 1    
    83   41  105 1    
    84   42   43 am   BACKBONE|DICT|INTERRES
    85   42  106 1    
    86   43   44 2    
    87   43   45 1    
    88   45   46 1    
    89   45   49 1    
    90   45  107 1    
    91   46   47 1    
    92   46  108 1    
    93   46  109 1    
    94   47   48 1    
    95   48  110 1    
    96   48  111 1    
    97   49   50 am   BACKBONE|DICT|INTERRES
    98   49  112 1    
    99   50   51 2    
   100   50   52 1    
   101   52   53 1    
   102   52   54 1    
   103   52  113 1    
   104   53  114 1    
   105   53  115 1    
   106   53  116 1    
   107   54   55 am   BACKBONE|DICT|INTERRES
   108   54  117 1    
   109   55   56 2    
   110   55   57 1    
   111   57   58 1    
   112   57   59 1    
   113   57  118 1    
   114   58  119 1    
   115   58  120 1    
   116   58  121 1    
   117   59   60 am   BACKBONE|DICT|INTERRES
   118   59  122 1    
   119   60   61 2    
   120   60   62 1    
   121   62   63 1    
   122   62   64 1    
   123   62  123 1    
   124   63  124 1    
   125   63  125 1    
   126   63  126 1    
   127   64   65 am   BACKBONE|DICT|INTERRES
   128   64  127 1    
   129   65   66 2    
@<TRIPOS>SUBSTRUCTURE
     1 UNK         1 GROUP             0       ****    0 ROOT    
