@<TRIPOS>MOLECULE
3R134
127   129    1
SMALL
USER_CHARGES


@<TRIPOS>ATOM
      1 CA         38.5797  -44.3331  -54.3997 C.3       0 UNK        -0.1968 
      2 C          37.1568  -44.3009  -54.9381 C.2       0 UNK         0.4852 
      3 O          36.9142  -43.7035  -55.9877 O.2       0 UNK        -0.5359 
      4 N          36.2163  -44.9383  -54.2274 N.am      1 UNK        -0.4300 
      5 CA         34.7907  -45.0004  -54.5833 C.3       1 UNK         0.0863 
      6 C6         33.9026  -45.4053  -53.3789 C.3       11 UNK        -0.0953 
      7 S7         34.1987  -44.3906  -51.8913 S.3       11 UNK        -0.2369 
      8 C8         33.1181  -42.9558  -52.1878 C.3       11 UNK         0.0226 
      9 C9         31.6401  -43.3010  -52.0727 C.ar      11 UNK        -0.0699 
     10 C10        31.1055  -43.7043  -50.8455 C.ar      11 UNK        -0.0804 
     11 C11        29.7443  -43.9995  -50.7249 C.ar      11 UNK        -0.0871 
     12 C12        28.9100  -43.8661  -51.8387 C.ar      11 UNK        -0.1008 
     13 C13        29.4373  -43.4824  -53.0752 C.ar      11 UNK        -0.0735 
     14 C14        30.8017  -43.1989  -53.1865 C.ar      11 UNK        -0.0945 
     15 C15        28.5375  -43.3809  -54.2948 C.3       11 UNK         0.0169 
     16 S16        28.5445  -44.9381  -55.2309 S.3       11 UNK        -0.2669 
     17 C17        27.4606  -44.4776  -56.6226 C.3       11 UNK        -0.0850 
     18 CA         27.0177  -45.7142  -57.4532 C.3       10 UNK         0.0855 
     19 C          25.8149  -45.4219  -58.4033 C.2       10 UNK         0.5543 
     20 N          25.6919  -46.0832  -59.5486 N.am      10 UNK        -0.7343 
     21 O          24.9526  -44.6081  -58.0822 O.2       10 UNK        -0.5027 
     22 N          28.1397  -46.4270  -58.0824 N.am      10 UNK        -0.4495 
     23 C          28.9063  -45.9893  -59.0910 C.2       10 UNK         0.4903 
     24 O          28.8738  -44.8419  -59.5365 O.2       10 UNK        -0.4860 
     25 CA         29.8353  -47.0241  -59.7595 C.3       9 UNK         0.0227 
     26 CB         31.2665  -46.8961  -59.2103 C.3       9 UNK        -0.1964 
     27 N          29.3764  -48.4117  -59.6122 N.am      9 UNK        -0.4231 
     28 C          28.2040  -48.9017  -60.0457 C.2       9 UNK         0.5014 
     29 O          27.3915  -48.2535  -60.7074 O.2       9 UNK        -0.5270 
     30 CA         27.8447  -50.3402  -59.6220 C.3       8 UNK         0.0284 
     31 CB         29.0748  -51.2561  -59.4469 C.3       8 UNK        -0.1977 
     32 N          26.9928  -50.3898  -58.4224 N.am      8 UNK        -0.4342 
     33 C          27.2030  -49.7819  -57.2445 C.2       8 UNK         0.5039 
     34 O          28.1646  -49.0499  -57.0065 O.2       8 UNK        -0.5547 
     35 CA         26.1825  -50.0507  -56.1335 C.3       7 UNK         0.0281 
     36 CB         26.6181  -51.2635  -55.2956 C.3       7 UNK        -0.1963 
     37 N          26.1148  -48.8759  -55.2647 N.am      7 UNK        -0.4444 
     38 C          24.9977  -48.1980  -54.9710 C.2       7 UNK         0.5104 
     39 O          23.8776  -48.5457  -55.3493 O.2       7 UNK        -0.5100 
     40 CA         25.1435  -46.8956  -54.1523 C.3       6 UNK         0.0396 
     41 CB         23.8850  -46.5719  -53.3186 C.3       6 UNK        -0.1801 
     42 N          26.3544  -46.8303  -53.3250 N.am      6 UNK        -0.4747 
     43 C          26.6600  -47.6103  -52.2772 C.2       6 UNK         0.5012 
     44 O          25.9451  -48.5222  -51.8558 O.2       6 UNK        -0.5003 
     45 CA         27.9984  -47.3109  -51.5701 C.3       5 UNK         0.0782 
     46 C46        27.7338  -46.7889  -50.1353 C.3       11 UNK        -0.0868 
     47 S47        29.2480  -46.2850  -49.2498 S.3       11 UNK        -0.2515 
     48 C48        29.1856  -44.4689  -49.3906 C.3       11 UNK         0.0199 
     49 N          28.8991  -48.4679  -51.5887 N.am      5 UNK        -0.4607 
     50 C          29.3223  -49.0885  -52.6966 C.2       4 UNK         0.5031 
     51 O          28.9430  -48.7955  -53.8328 O.2       4 UNK        -0.5119 
     52 CA         30.3253  -50.2394  -52.4957 C.3       4 UNK         0.0263 
     53 CB         29.5936  -51.5336  -52.1022 C.3       4 UNK        -0.1967 
     54 N          31.0962  -50.4790  -53.7175 N.am      4 UNK        -0.4237 
     55 C          32.0340  -49.6488  -54.1911 C.2       3 UNK         0.4908 
     56 O          32.5052  -48.7016  -53.5537 O.2       3 UNK        -0.5102 
     57 CA         32.4987  -49.9079  -55.6303 C.3       3 UNK         0.0241 
     58 CB         31.3262  -49.7314  -56.6160 C.3       3 UNK        -0.1971 
     59 N          33.5698  -48.9672  -55.9424 N.am      3 UNK        -0.4139 
     60 C          34.3706  -48.9830  -57.0125 C.2       2 UNK         0.5016 
     61 O          34.3119  -49.8461  -57.8899 O.2       2 UNK        -0.5319 
     62 CA         35.4445  -47.8806  -57.1224 C.3       2 UNK         0.0286 
     63 CB         35.4228  -47.1989  -58.5075 C.3       2 UNK        -0.1963 
     64 N          35.4331  -46.8818  -56.0399 N.am      2 UNK        -0.4790 
     65 C          34.5164  -45.9317  -55.7855 C.2       1 UNK         0.5024 
     66 O          33.4852  -45.7795  -56.4395 O.2       1 UNK        -0.4888 
     67 H67        38.6500  -44.8878  -53.4642 H         1 UNK         0.0892 
     68 H68        39.2444  -44.8035  -55.1238 H         1 UNK         0.0892 
     69 H69        38.9349  -43.3189  -54.2192 H         1 UNK         0.0892 
     70 H70        36.4665  -45.3849  -53.3562 H         1 UNK         0.3107 
     71 H71        34.4872  -43.9983  -54.8941 H         1 UNK         0.0773 
     72 H72        34.0899  -46.4445  -53.1023 H         1 UNK         0.0680 
     73 H73        32.8445  -45.3534  -53.6427 H         1 UNK         0.0680 
     74 H74        33.3477  -42.5293  -53.1653 H         1 UNK         0.0650 
     75 H75        33.3565  -42.1838  -51.4550 H         1 UNK         0.0650 
     76 H76        31.7553  -43.7977  -49.9859 H         1 UNK         0.1397 
     77 H77        27.8544  -44.0827  -51.7491 H         1 UNK         0.1363 
     78 H78        31.2087  -42.8999  -54.1430 H         1 UNK         0.1355 
     79 H79        28.8727  -42.5670  -54.9398 H         1 UNK         0.0707 
     80 H80        27.5170  -43.1388  -53.9934 H         1 UNK         0.0707 
     81 H81        26.5920  -43.9646  -56.2059 H         1 UNK         0.1034 
     82 H82        27.9705  -43.7478  -57.2531 H         1 UNK         0.1034 
     83 H83        26.6121  -46.4377  -56.7496 H         1 UNK         0.0482 
     84 H84        26.3796  -46.7706  -59.8383 H         1 UNK         0.3460 
     85 H85        24.9018  -45.8890  -60.1426 H         1 UNK         0.3460 
     86 H86        28.2618  -47.3885  -57.7667 H         1 UNK         0.2989 
     87 H87        29.8575  -46.8023  -60.8283 H         1 UNK         0.0559 
     88 H88        31.9459  -47.6045  -59.6847 H         1 UNK         0.0848 
     89 H89        31.3053  -47.0611  -58.1331 H         1 UNK         0.0848 
     90 H90        31.6640  -45.8967  -59.3925 H         1 UNK         0.0848 
     91 H91        29.9284  -49.0062  -59.0118 H         1 UNK         0.3144 
     92 H92        27.2507  -50.7524  -60.4394 H         1 UNK         0.0727 
     93 H93        29.7419  -51.1940  -60.3080 H         1 UNK         0.0790 
     94 H94        28.7711  -52.2989  -59.3537 H         1 UNK         0.0790 
     95 H95        29.6524  -51.0080  -58.5587 H         1 UNK         0.0790 
     96 H96        26.1541  -50.9457  -58.5202 H         1 UNK         0.3215 
     97 H97        25.2120  -50.2567  -56.5897 H         1 UNK         0.0863 
     98 H98        27.6067  -51.1124  -54.8602 H         1 UNK         0.0808 
     99 H99        26.6629  -52.1672  -55.9045 H         1 UNK         0.0808 
    100 H100       25.9196  -51.4530  -54.4803 H         1 UNK         0.0808 
    101 H101       27.0167  -48.5270  -54.9528 H         1 UNK         0.3118 
    102 H102       25.2468  -46.0949  -54.8849 H         1 UNK         0.0546 
    103 H103       23.6515  -47.3664  -52.6095 H         1 UNK         0.0828 
    104 H104       23.0120  -46.4463  -53.9603 H         1 UNK         0.0828 
    105 H105       24.0062  -45.6452  -52.7580 H         1 UNK         0.0828 
    106 H106       27.0417  -46.1530  -53.6321 H         1 UNK         0.3005 
    107 H107       28.5114  -46.5285  -52.1312 H         1 UNK         0.1257 
    108 H108       27.2458  -47.5617  -49.5379 H         1 UNK         0.0775 
    109 H109       27.0368  -45.9491  -50.1550 H         1 UNK         0.0775 
    110 H110       28.1659  -44.1080  -49.2488 H         1 UNK         0.0840 
    111 H111       29.7692  -44.0376  -48.5757 H         1 UNK         0.0840 
    112 H112       29.2403  -48.7731  -50.6892 H         1 UNK         0.2987 
    113 H113       31.0169  -49.9651  -51.6959 H         1 UNK         0.0785 
    114 H114       29.0324  -51.4012  -51.1763 H         1 UNK         0.0798 
    115 H115       30.2950  -52.3521  -51.9390 H         1 UNK         0.0798 
    116 H116       28.8842  -51.8470  -52.8689 H         1 UNK         0.0798 
    117 H117       30.7478  -51.2042  -54.3264 H         1 UNK         0.3079 
    118 H118       32.8923  -50.9243  -55.6937 H         1 UNK         0.0794 
    119 H119       31.6405  -49.8611  -57.6508 H         1 UNK         0.0786 
    120 H120       30.8741  -48.7433  -56.5200 H         1 UNK         0.0786 
    121 H121       30.5383  -50.4604  -56.4261 H         1 UNK         0.0786 
    122 H122       33.6910  -48.2461  -55.2419 H         1 UNK         0.3032 
    123 H123       36.4001  -48.4002  -57.0336 H         1 UNK         0.1094 
    124 H124       35.5975  -47.9242  -59.3032 H         1 UNK         0.0794 
    125 H125       34.4633  -46.7233  -58.7125 H         1 UNK         0.0794 
    126 H126       36.1995  -46.4384  -58.5884 H         1 UNK         0.0794 
    127 H127       36.2308  -46.9166  -55.4198 H         1 UNK         0.3016 
@<TRIPOS>BOND
     1    1    2 1    
     2    1   67 1    
     3    1   68 1    
     4    1   69 1    
     5    2    3 2    
     6    2    4 am   BACKBONE|DICT|INTERRES
     7    4    5 1    
     8    4   70 1    
     9    5    6 1    
    10    5   65 1    
    11    5   71 1    
    12    6    7 1    
    13    6   72 1    
    14    6   73 1    
    15    7    8 1    
    16    8    9 1    
    17    8   74 1    
    18    8   75 1    
    19    9   10 ar   
    20    9   14 ar   
    21   10   11 ar   
    22   10   76 1    
    23   11   12 ar   
    24   11   48 1    
    25   12   13 ar   
    26   12   77 1    
    27   13   14 ar   
    28   13   15 1    
    29   14   78 1    
    30   15   16 1    
    31   15   79 1    
    32   15   80 1    
    33   16   17 1    
    34   17   18 1    
    35   17   81 1    
    36   17   82 1    
    37   18   19 1    
    38   18   22 1    
    39   18   83 1    
    40   19   20 am   BACKBONE|DICT|INTERRES
    41   19   21 2    
    42   20   84 1    
    43   20   85 1    
    44   22   23 am   BACKBONE|DICT|INTERRES
    45   22   86 1    
    46   23   24 2    
    47   23   25 1    
    48   25   26 1    
    49   25   27 1    
    50   25   87 1    
    51   26   88 1    
    52   26   89 1    
    53   26   90 1    
    54   27   28 am   BACKBONE|DICT|INTERRES
    55   27   91 1    
    56   28   29 2    
    57   28   30 1    
    58   30   31 1    
    59   30   32 1    
    60   30   92 1    
    61   31   93 1    
    62   31   94 1    
    63   31   95 1    
    64   32   33 am   BACKBONE|DICT|INTERRES
    65   32   96 1    
    66   33   34 2    
    67   33   35 1    
    68   35   36 1    
    69   35   37 1    
    70   35   97 1    
    71   36   98 1    
    72   36   99 1    
    73   36  100 1    
    74   37   38 am   BACKBONE|DICT|INTERRES
    75   37  101 1    
    76   38   39 2    
    77   38   40 1    
    78   40   41 1    
    79   40   42 1    
    80   40  102 1    
    81   41  103 1    
    82   41  104 1    
    83   41  105 1    
    84   42   43 am   BACKBONE|DICT|INTERRES
    85   42  106 1    
    86   43   44 2    
    87   43   45 1    
    88   45   46 1    
    89   45   49 1    
    90   45  107 1    
    91   46   47 1    
    92   46  108 1    
    93   46  109 1    
    94   47   48 1    
    95   48  110 1    
    96   48  111 1    
    97   49   50 am   BACKBONE|DICT|INTERRES
    98   49  112 1    
    99   50   51 2    
   100   50   52 1    
   101   52   53 1    
   102   52   54 1    
   103   52  113 1    
   104   53  114 1    
   105   53  115 1    
   106   53  116 1    
   107   54   55 am   BACKBONE|DICT|INTERRES
   108   54  117 1    
   109   55   56 2    
   110   55   57 1    
   111   57   58 1    
   112   57   59 1    
   113   57  118 1    
   114   58  119 1    
   115   58  120 1    
   116   58  121 1    
   117   59   60 am   BACKBONE|DICT|INTERRES
   118   59  122 1    
   119   60   61 2    
   120   60   62 1    
   121   62   63 1    
   122   62   64 1    
   123   62  123 1    
   124   63  124 1    
   125   63  125 1    
   126   63  126 1    
   127   64   65 am   BACKBONE|DICT|INTERRES
   128   64  127 1    
   129   65   66 2    
@<TRIPOS>SUBSTRUCTURE
     1 UNK         1 GROUP             0       ****    0 ROOT    
