@<TRIPOS>MOLECULE
3R134
127   129    1
SMALL
USER_CHARGES


@<TRIPOS>ATOM
      1 CA         35.5533  -50.2693  -57.8121 C.3       0 UNK        -0.1968 
      2 C          34.6478  -49.8466  -56.6649 C.2       0 UNK         0.4852 
      3 O          34.5795  -50.5434  -55.6542 O.2       0 UNK        -0.5359 
      4 N          33.9709  -48.6998  -56.8090 N.am      1 UNK        -0.4300 
      5 CA         33.0154  -48.1189  -55.8540 C.3       1 UNK         0.0863 
      6 C6         32.1142  -47.0537  -56.5337 C.3       11 UNK        -0.0953 
      7 S7         33.0205  -45.7930  -57.4995 S.3       11 UNK        -0.2369 
      8 C8         33.3668  -44.4939  -56.2687 C.3       11 UNK         0.0226 
      9 C9         32.1124  -43.8394  -55.7046 C.ar      11 UNK        -0.0699 
     10 C10        31.8226  -43.9340  -54.3397 C.ar      11 UNK        -0.0804 
     11 C11        30.7097  -43.2810  -53.8002 C.ar      11 UNK        -0.0871 
     12 C12        29.8865  -42.5234  -54.6399 C.ar      11 UNK        -0.1008 
     13 C13        30.1627  -42.4226  -56.0070 C.ar      11 UNK        -0.0735 
     14 C14        31.2743  -43.0878  -56.5336 C.ar      11 UNK        -0.0945 
     15 C15        29.2994  -41.5509  -56.9092 C.3       11 UNK         0.0169 
     16 S16        27.8847  -42.4594  -57.6073 S.3       11 UNK        -0.2669 
     17 C17        26.6716  -42.4087  -56.2403 C.3       11 UNK        -0.0850 
     18 CA         26.5257  -43.7797  -55.5153 C.3       10 UNK         0.0855 
     19 C          25.6482  -43.7467  -54.2268 C.2       10 UNK         0.5543 
     20 N          25.6094  -42.6375  -53.4997 N.am      10 UNK        -0.7343 
     21 O          25.0428  -44.7438  -53.8378 O.2       10 UNK        -0.5027 
     22 N          26.1613  -44.8775  -56.4221 N.am      10 UNK        -0.4495 
     23 C          25.0292  -44.9967  -57.1304 C.2       10 UNK         0.4903 
     24 O          24.1213  -44.1636  -57.1197 O.2       10 UNK        -0.4860 
     25 CA         24.8817  -46.2725  -57.9888 C.3       9 UNK         0.0227 
     26 CB         23.9356  -46.0836  -59.1938 C.3       9 UNK        -0.1964 
     27 N          26.1721  -46.8405  -58.4025 N.am      9 UNK        -0.4231 
     28 C          27.1046  -46.2682  -59.1825 C.2       9 UNK         0.5014 
     29 O          26.9190  -45.2297  -59.8175 O.2       9 UNK        -0.5270 
     30 CA         28.4888  -46.9425  -59.2478 C.3       8 UNK         0.0284 
     31 CB         29.6057  -45.9214  -58.9663 C.3       8 UNK        -0.1977 
     32 N          28.6095  -48.0470  -58.2898 N.am      8 UNK        -0.4342 
     33 C          28.6037  -49.3489  -58.6106 C.2       8 UNK         0.5039 
     34 O          28.5987  -49.7695  -59.7680 O.2       8 UNK        -0.5547 
     35 CA         28.5619  -50.3633  -57.4489 C.3       7 UNK         0.0281 
     36 CB         29.9826  -50.8369  -57.1036 C.3       7 UNK        -0.1963 
     37 N          27.9074  -49.8543  -56.2370 N.am      7 UNK        -0.4444 
     38 C          26.6299  -49.4436  -56.1740 C.2       7 UNK         0.5104 
     39 O          25.8485  -49.5230  -57.1209 O.2       7 UNK        -0.5100 
     40 CA         26.1438  -48.7578  -54.8817 C.3       6 UNK         0.0396 
     41 CB         25.3259  -49.7427  -54.0326 C.3       6 UNK        -0.1801 
     42 N          27.2047  -48.1794  -54.0543 N.am      6 UNK        -0.4747 
     43 C          28.1330  -47.2936  -54.4470 C.2       6 UNK         0.5012 
     44 O          28.1760  -46.8063  -55.5794 O.2       6 UNK        -0.5003 
     45 CA         29.2367  -46.9548  -53.4214 C.3       5 UNK         0.0782 
     46 C46        28.8528  -45.6817  -52.6310 C.3       11 UNK        -0.0868 
     47 S47        30.2592  -45.0447  -51.6625 S.3       11 UNK        -0.2515 
     48 C48        30.4226  -43.3443  -52.3031 C.3       11 UNK         0.0199 
     49 N          29.5699  -48.0675  -52.5127 N.am      5 UNK        -0.4607 
     50 C          29.8724  -49.3271  -52.8599 C.2       4 UNK         0.5031 
     51 O          29.8926  -49.7305  -54.0242 O.2       4 UNK        -0.5119 
     52 CA         30.1666  -50.2905  -51.6933 C.3       4 UNK         0.0263 
     53 CB         29.8820  -51.7640  -52.0580 C.3       4 UNK        -0.1967 
     54 N          31.5291  -50.1192  -51.1713 N.am      4 UNK        -0.4237 
     55 C          32.6749  -50.3073  -51.8413 C.2       3 UNK         0.4908 
     56 O          32.7482  -50.7472  -52.9898 O.2       3 UNK        -0.5102 
     57 CA         33.9725  -49.9402  -51.1125 C.3       3 UNK         0.0241 
     58 CB         34.7168  -51.1959  -50.6295 C.3       3 UNK        -0.1971 
     59 N          34.7871  -49.2281  -52.0880 N.am      3 UNK        -0.4139 
     60 C          35.3096  -48.0092  -51.9197 C.2       2 UNK         0.5016 
     61 O          35.4289  -47.4541  -50.8265 O.2       2 UNK        -0.5319 
     62 CA         35.7256  -47.2567  -53.2000 C.3       2 UNK         0.0286 
     63 CB         37.2292  -47.4306  -53.4668 C.3       2 UNK        -0.1963 
     64 N          34.9736  -47.6566  -54.3984 N.am      2 UNK        -0.4790 
     65 C          33.6399  -47.5851  -54.5446 C.2       1 UNK         0.5024 
     66 O          32.8975  -47.1158  -53.6824 O.2       1 UNK        -0.4888 
     67 H67        35.5309  -49.5553  -58.6353 H         1 UNK         0.0892 
     68 H68        36.5828  -50.3558  -57.4660 H         1 UNK         0.0892 
     69 H69        35.2407  -51.2395  -58.1971 H         1 UNK         0.0892 
     70 H70        34.0947  -48.1570  -57.6528 H         1 UNK         0.3107 
     71 H71        32.3619  -48.9320  -55.5300 H         1 UNK         0.0773 
     72 H72        31.4466  -47.5640  -57.2284 H         1 UNK         0.0680 
     73 H73        31.4511  -46.5617  -55.8230 H         1 UNK         0.0680 
     74 H74        33.9730  -43.7239  -56.7475 H         1 UNK         0.0650 
     75 H75        33.9859  -44.9046  -55.4711 H         1 UNK         0.0650 
     76 H76        32.4711  -44.5042  -53.6885 H         1 UNK         0.1397 
     77 H77        29.0387  -41.9951  -54.2269 H         1 UNK         0.1363 
     78 H78        31.5017  -43.0050  -57.5877 H         1 UNK         0.1355 
     79 H79        28.9524  -40.6682  -56.3703 H         1 UNK         0.0707 
     80 H80        29.9029  -41.1729  -57.7359 H         1 UNK         0.0707 
     81 H81        25.7107  -42.0878  -56.6451 H         1 UNK         0.1034 
     82 H82        26.9712  -41.6255  -55.5447 H         1 UNK         0.1034 
     83 H83        27.5178  -44.0505  -55.1595 H         1 UNK         0.0482 
     84 H84        25.0563  -42.6328  -52.6569 H         1 UNK         0.3460 
     85 H85        26.1032  -41.8039  -53.7728 H         1 UNK         0.3460 
     86 H86        26.8348  -45.6346  -56.4480 H         1 UNK         0.2989 
     87 H87        24.4264  -47.0177  -57.3354 H         1 UNK         0.0559 
     88 H88        22.9296  -45.8229  -58.8630 H         1 UNK         0.0848 
     89 H89        23.8547  -46.9971  -59.7826 H         1 UNK         0.0848 
     90 H90        24.2739  -45.2855  -59.8551 H         1 UNK         0.0848 
     91 H91        26.3855  -47.7448  -57.9968 H         1 UNK         0.3144 
     92 H92        28.6126  -47.3047  -60.2701 H         1 UNK         0.0727 
     93 H93        29.5705  -45.5518  -57.9400 H         1 UNK         0.0790 
     94 H94        29.5326  -45.0551  -59.6250 H         1 UNK         0.0790 
     95 H95        30.5865  -46.3629  -59.1362 H         1 UNK         0.0790 
     96 H96        28.6030  -47.7839  -57.3082 H         1 UNK         0.3215 
     97 H97        27.9877  -51.2265  -57.7920 H         1 UNK         0.0863 
     98 H98        29.9697  -51.6045  -56.3294 H         1 UNK         0.0808 
     99 H99        30.6033  -50.0153  -56.7467 H         1 UNK         0.0808 
    100 H100       30.4769  -51.2642  -57.9770 H         1 UNK         0.0808 
    101 H101       28.4966  -49.7575  -55.4130 H         1 UNK         0.3118 
    102 H102       25.4884  -47.9366  -55.1783 H         1 UNK         0.0546 
    103 H103       25.9382  -50.5707  -53.6730 H         1 UNK         0.0828 
    104 H104       24.5065  -50.1712  -54.6117 H         1 UNK         0.0828 
    105 H105       24.8826  -49.2498  -53.1673 H         1 UNK         0.0828 
    106 H106       27.2684  -48.5261  -53.1082 H         1 UNK         0.3005 
    107 H107       30.1374  -46.7401  -53.9973 H         1 UNK         0.1257 
    108 H108       28.0219  -45.8815  -51.9517 H         1 UNK         0.0775 
    109 H109       28.5066  -44.8964  -53.3019 H         1 UNK         0.0775 
    110 H110       29.5141  -42.7919  -52.0573 H         1 UNK         0.0840 
    111 H111       31.2342  -42.8471  -51.7703 H         1 UNK         0.0840 
    112 H112       29.6090  -47.8188  -51.5349 H         1 UNK         0.2987 
    113 H113       29.4879  -50.0279  -50.8800 H         1 UNK         0.0785 
    114 H114       28.8436  -51.8923  -52.3657 H         1 UNK         0.0798 
    115 H115       30.0530  -52.4232  -51.2072 H         1 UNK         0.0798 
    116 H116       30.5048  -52.1133  -52.8821 H         1 UNK         0.0798 
    117 H117       31.5873  -49.7512  -50.2314 H         1 UNK         0.3079 
    118 H118       33.7422  -49.3001  -50.2578 H         1 UNK         0.0794 
    119 H119       35.6566  -50.9343  -50.1429 H         1 UNK         0.0786 
    120 H120       34.9444  -51.8730  -51.4542 H         1 UNK         0.0786 
    121 H121       34.1177  -51.7501  -49.9060 H         1 UNK         0.0786 
    122 H122       34.6880  -49.5748  -53.0358 H         1 UNK         0.3032 
    123 H123       35.5247  -46.1972  -53.0265 H         1 UNK         0.1094 
    124 H124       37.4841  -48.4701  -53.6773 H         1 UNK         0.0794 
    125 H125       37.5560  -46.8250  -54.3123 H         1 UNK         0.0794 
    126 H126       37.8171  -47.1196  -52.6019 H         1 UNK         0.0794 
    127 H127       35.5052  -48.0650  -55.1534 H         1 UNK         0.3016 
@<TRIPOS>BOND
     1    1    2 1    
     2    1   67 1    
     3    1   68 1    
     4    1   69 1    
     5    2    3 2    
     6    2    4 am   BACKBONE|DICT|INTERRES
     7    4    5 1    
     8    4   70 1    
     9    5    6 1    
    10    5   65 1    
    11    5   71 1    
    12    6    7 1    
    13    6   72 1    
    14    6   73 1    
    15    7    8 1    
    16    8    9 1    
    17    8   74 1    
    18    8   75 1    
    19    9   10 ar   
    20    9   14 ar   
    21   10   11 ar   
    22   10   76 1    
    23   11   12 ar   
    24   11   48 1    
    25   12   13 ar   
    26   12   77 1    
    27   13   14 ar   
    28   13   15 1    
    29   14   78 1    
    30   15   16 1    
    31   15   79 1    
    32   15   80 1    
    33   16   17 1    
    34   17   18 1    
    35   17   81 1    
    36   17   82 1    
    37   18   19 1    
    38   18   22 1    
    39   18   83 1    
    40   19   20 am   BACKBONE|DICT|INTERRES
    41   19   21 2    
    42   20   84 1    
    43   20   85 1    
    44   22   23 am   BACKBONE|DICT|INTERRES
    45   22   86 1    
    46   23   24 2    
    47   23   25 1    
    48   25   26 1    
    49   25   27 1    
    50   25   87 1    
    51   26   88 1    
    52   26   89 1    
    53   26   90 1    
    54   27   28 am   BACKBONE|DICT|INTERRES
    55   27   91 1    
    56   28   29 2    
    57   28   30 1    
    58   30   31 1    
    59   30   32 1    
    60   30   92 1    
    61   31   93 1    
    62   31   94 1    
    63   31   95 1    
    64   32   33 am   BACKBONE|DICT|INTERRES
    65   32   96 1    
    66   33   34 2    
    67   33   35 1    
    68   35   36 1    
    69   35   37 1    
    70   35   97 1    
    71   36   98 1    
    72   36   99 1    
    73   36  100 1    
    74   37   38 am   BACKBONE|DICT|INTERRES
    75   37  101 1    
    76   38   39 2    
    77   38   40 1    
    78   40   41 1    
    79   40   42 1    
    80   40  102 1    
    81   41  103 1    
    82   41  104 1    
    83   41  105 1    
    84   42   43 am   BACKBONE|DICT|INTERRES
    85   42  106 1    
    86   43   44 2    
    87   43   45 1    
    88   45   46 1    
    89   45   49 1    
    90   45  107 1    
    91   46   47 1    
    92   46  108 1    
    93   46  109 1    
    94   47   48 1    
    95   48  110 1    
    96   48  111 1    
    97   49   50 am   BACKBONE|DICT|INTERRES
    98   49  112 1    
    99   50   51 2    
   100   50   52 1    
   101   52   53 1    
   102   52   54 1    
   103   52  113 1    
   104   53  114 1    
   105   53  115 1    
   106   53  116 1    
   107   54   55 am   BACKBONE|DICT|INTERRES
   108   54  117 1    
   109   55   56 2    
   110   55   57 1    
   111   57   58 1    
   112   57   59 1    
   113   57  118 1    
   114   58  119 1    
   115   58  120 1    
   116   58  121 1    
   117   59   60 am   BACKBONE|DICT|INTERRES
   118   59  122 1    
   119   60   61 2    
   120   60   62 1    
   121   62   63 1    
   122   62   64 1    
   123   62  123 1    
   124   63  124 1    
   125   63  125 1    
   126   63  126 1    
   127   64   65 am   BACKBONE|DICT|INTERRES
   128   64  127 1    
   129   65   66 2    
@<TRIPOS>SUBSTRUCTURE
     1 UNK         1 GROUP             0       ****    0 ROOT    
