@<TRIPOS>MOLECULE
3R134
127   129    1
SMALL
USER_CHARGES


@<TRIPOS>ATOM
      1 CA         29.5179  -47.3744  -49.4974 C.3       0 UNK        -0.1968 
      2 C          31.0001  -47.0838  -49.3133 C.2       0 UNK         0.4852 
      3 O          31.6488  -47.7066  -48.4707 O.2       0 UNK        -0.5359 
      4 N          31.5451  -46.1490  -50.1016 N.am      1 UNK        -0.4300 
      5 CA         32.9490  -45.7171  -50.1312 C.3       1 UNK         0.0863 
      6 C6         33.1008  -44.2794  -50.7139 C.3       11 UNK        -0.0953 
      7 S7         32.0262  -43.9221  -52.1485 S.3       11 UNK        -0.2369 
      8 C8         33.2178  -43.7476  -53.5161 C.3       11 UNK         0.0226 
      9 C9         32.5608  -43.8394  -54.8926 C.ar      11 UNK        -0.0699 
     10 C10        33.1964  -44.5507  -55.9145 C.ar      11 UNK        -0.0804 
     11 C11        32.6214  -44.6448  -57.1856 C.ar      11 UNK        -0.0871 
     12 C12        31.3844  -44.0409  -57.4295 C.ar      11 UNK        -0.1008 
     13 C13        30.7387  -43.3169  -56.4222 C.ar      11 UNK        -0.0735 
     14 C14        31.3425  -43.2049  -55.1649 C.ar      11 UNK        -0.0945 
     15 C15        29.4084  -42.6279  -56.7025 C.3       11 UNK         0.0169 
     16 S16        28.1123  -43.1320  -55.5268 S.3       11 UNK        -0.2669 
     17 C17        26.6675  -42.2112  -56.1535 C.3       11 UNK        -0.0850 
     18 CA         25.5202  -43.1534  -56.6033 C.3       10 UNK         0.0855 
     19 C          24.2226  -42.3476  -56.9071 C.2       10 UNK         0.5543 
     20 N          23.6876  -42.3748  -58.1220 N.am      10 UNK        -0.7343 
     21 O          23.6877  -41.6887  -56.0188 O.2       10 UNK        -0.5027 
     22 N          25.9471  -44.0568  -57.6865 N.am      10 UNK        -0.4495 
     23 C          25.3884  -45.2431  -57.9555 C.2       10 UNK         0.4903 
     24 O          24.4556  -45.7186  -57.3063 O.2       10 UNK        -0.4860 
     25 CA         25.9334  -46.0261  -59.1627 C.3       9 UNK         0.0227 
     26 CB         27.1211  -45.3491  -59.8817 C.3       9 UNK        -0.1964 
     27 N          26.3291  -47.3634  -58.7205 N.am      9 UNK        -0.4231 
     28 C          25.6674  -48.4940  -59.0041 C.2       9 UNK         0.5014 
     29 O          24.6682  -48.5440  -59.7238 O.2       9 UNK        -0.5270 
     30 CA         26.2083  -49.8049  -58.4052 C.3       8 UNK         0.0284 
     31 CB         27.2630  -50.4299  -59.3322 C.3       8 UNK        -0.1977 
     32 N          26.7567  -49.6627  -57.0535 N.am      8 UNK        -0.4342 
     33 C          26.0106  -49.4540  -55.9579 C.2       8 UNK         0.5039 
     34 O          24.7865  -49.3216  -55.9768 O.2       8 UNK        -0.5547 
     35 CA         26.7444  -49.4094  -54.6096 C.3       7 UNK         0.0281 
     36 CB         27.0312  -50.8307  -54.0972 C.3       7 UNK        -0.1963 
     37 N          27.9974  -48.6649  -54.7106 N.am      7 UNK        -0.4444 
     38 C          28.1152  -47.3469  -54.4985 C.2       7 UNK         0.5104 
     39 O          27.1930  -46.6279  -54.1142 O.2       7 UNK        -0.5100 
     40 CA         29.5016  -46.7278  -54.7522 C.3       6 UNK         0.0396 
     41 CB         30.3118  -46.7060  -53.4497 C.3       6 UNK        -0.1801 
     42 N          30.2612  -47.4277  -55.7909 N.am      6 UNK        -0.4747 
     43 C          29.9048  -47.4593  -57.0849 C.2       6 UNK         0.5012 
     44 O          28.9182  -46.8747  -57.5293 O.2       6 UNK        -0.5003 
     45 CA         30.7126  -48.3627  -58.0392 C.3       5 UNK         0.0782 
     46 C46        31.6909  -47.5621  -58.9343 C.3       11 UNK        -0.0868 
     47 S47        33.2855  -47.1658  -58.1397 S.3       11 UNK        -0.2515 
     48 C48        33.3690  -45.3576  -58.3020 C.3       11 UNK         0.0199 
     49 N          31.3537  -49.4964  -57.3668 N.am      5 UNK        -0.4607 
     50 C          30.7092  -50.4608  -56.6981 C.2       4 UNK         0.5031 
     51 O          29.4813  -50.5337  -56.6298 O.2       4 UNK        -0.5119 
     52 CA         31.5752  -51.4767  -55.9330 C.3       4 UNK         0.0263 
     53 CB         31.8101  -52.7291  -56.7915 C.3       4 UNK        -0.1967 
     54 N          32.8676  -50.9411  -55.4806 N.am      4 UNK        -0.4237 
     55 C          33.0147  -49.9255  -54.6170 C.2       3 UNK         0.4908 
     56 O          32.0714  -49.2924  -54.1408 O.2       3 UNK        -0.5102 
     57 CA         34.4553  -49.5144  -54.2759 C.3       3 UNK         0.0241 
     58 CB         34.9355  -48.3974  -55.2133 C.3       3 UNK        -0.1971 
     59 N          34.5706  -49.0468  -52.8955 N.am      3 UNK        -0.4139 
     60 C          34.5506  -49.8330  -51.8154 C.2       2 UNK         0.5016 
     61 O          34.4290  -51.0582  -51.8663 O.2       2 UNK        -0.5319 
     62 CA         34.7299  -49.1579  -50.4438 C.3       2 UNK         0.0286 
     63 CB         36.2151  -48.8433  -50.1777 C.3       2 UNK        -0.1963 
     64 N          33.8870  -47.9797  -50.1915 N.am      2 UNK        -0.4790 
     65 C          33.8839  -46.7720  -50.7742 C.2       1 UNK         0.5024 
     66 O          34.5823  -46.4837  -51.7472 O.2       1 UNK        -0.4888 
     67 H67        29.3753  -48.4080  -49.8119 H         1 UNK         0.0892 
     68 H68        28.9874  -47.2274  -48.5571 H         1 UNK         0.0892 
     69 H69        29.0641  -46.7263  -50.2470 H         1 UNK         0.0892 
     70 H70        30.9640  -45.6746  -50.7782 H         1 UNK         0.3107 
     71 H71        33.2819  -45.6536  -49.0926 H         1 UNK         0.0773 
     72 H72        32.8203  -43.5627  -49.9406 H         1 UNK         0.0680 
     73 H73        34.1402  -44.0431  -50.9494 H         1 UNK         0.0680 
     74 H74        33.9795  -44.5215  -53.4167 H         1 UNK         0.0650 
     75 H75        33.7291  -42.7887  -53.4253 H         1 UNK         0.0650 
     76 H76        34.1502  -45.0248  -55.7269 H         1 UNK         0.1397 
     77 H77        30.9340  -44.1179  -58.4096 H         1 UNK         0.1363 
     78 H78        30.8487  -42.6337  -54.3912 H         1 UNK         0.1355 
     79 H79        29.5491  -41.5478  -56.6436 H         1 UNK         0.0707 
     80 H80        29.0688  -42.8472  -57.7159 H         1 UNK         0.0707 
     81 H81        26.3305  -41.5568  -55.3470 H         1 UNK         0.1034 
     82 H82        26.9640  -41.5504  -56.9700 H         1 UNK         0.1034 
     83 H83        25.2719  -43.7787  -55.7429 H         1 UNK         0.0482 
     84 H84        22.8454  -41.8515  -58.3033 H         1 UNK         0.3460 
     85 H85        24.1148  -42.9155  -58.8562 H         1 UNK         0.3460 
     86 H86        26.7106  -43.7362  -58.2616 H         1 UNK         0.2989 
     87 H87        25.1150  -46.0901  -59.8821 H         1 UNK         0.0559 
     88 H88        26.8276  -44.3920  -60.3145 H         1 UNK         0.0848 
     89 H89        27.4814  -45.9679  -60.7036 H         1 UNK         0.0848 
     90 H90        27.9653  -45.1696  -59.2156 H         1 UNK         0.0848 
     91 H91        27.1433  -47.3974  -58.1127 H         1 UNK         0.3144 
     92 H92        25.3708  -50.5035  -58.3440 H         1 UNK         0.0727 
     93 H93        27.6582  -51.3591  -58.9208 H         1 UNK         0.0790 
     94 H94        28.0990  -49.7553  -59.5075 H         1 UNK         0.0790 
     95 H95        26.8303  -50.6645  -60.3056 H         1 UNK         0.0790 
     96 H96        27.7509  -49.8439  -56.9368 H         1 UNK         0.3215 
     97 H97        26.0867  -48.9210  -53.8869 H         1 UNK         0.0863 
     98 H98        27.5085  -50.8088  -53.1174 H         1 UNK         0.0808 
     99 H99        27.6812  -51.3867  -54.7737 H         1 UNK         0.0808 
    100 H100       26.1064  -51.3999  -53.9940 H         1 UNK         0.0808 
    101 H101       28.8038  -49.1710  -55.0547 H         1 UNK         0.3118 
    102 H102       29.3632  -45.6991  -55.0854 H         1 UNK         0.0546 
    103 H103       29.8559  -46.0234  -52.7328 H         1 UNK         0.0828 
    104 H104       31.3343  -46.3713  -53.6238 H         1 UNK         0.0828 
    105 H105       30.3583  -47.6889  -52.9799 H         1 UNK         0.0828 
    106 H106       31.0587  -47.9715  -55.4800 H         1 UNK         0.3005 
    107 H107       29.9709  -48.7946  -58.7113 H         1 UNK         0.1257 
    108 H108       31.9216  -48.1534  -59.8218 H         1 UNK         0.0775 
    109 H109       31.2175  -46.6538  -59.3122 H         1 UNK         0.0775 
    110 H110       34.4176  -45.0575  -58.2732 H         1 UNK         0.0840 
    111 H111       33.0002  -45.0519  -59.2823 H         1 UNK         0.0840 
    112 H112       32.3633  -49.4891  -57.3613 H         1 UNK         0.2987 
    113 H113       31.0128  -51.7714  -55.0445 H         1 UNK         0.0785 
    114 H114       32.3355  -53.5026  -56.2311 H         1 UNK         0.0798 
    115 H115       32.3942  -52.5041  -57.6849 H         1 UNK         0.0798 
    116 H116       30.8629  -53.1588  -57.1214 H         1 UNK         0.0798 
    117 H117       33.6945  -51.3986  -55.8377 H         1 UNK         0.3079 
    118 H118       35.1107  -50.3794  -54.3987 H         1 UNK         0.0794 
    119 H119       34.9554  -48.7400  -56.2480 H         1 UNK         0.0786 
    120 H120       35.9462  -48.0739  -54.9634 H         1 UNK         0.0786 
    121 H121       34.2830  -47.5242  -55.1651 H         1 UNK         0.0786 
    122 H122       34.6273  -48.0434  -52.7400 H         1 UNK         0.3032 
    123 H123       34.4198  -49.8963  -49.7020 H         1 UNK         0.1094 
    124 H124       36.6070  -48.0999  -50.8727 H         1 UNK         0.0794 
    125 H125       36.3653  -48.4676  -49.1656 H         1 UNK         0.0794 
    126 H126       36.8280  -49.7395  -50.2839 H         1 UNK         0.0794 
    127 H127       33.2083  -48.0950  -49.4402 H         1 UNK         0.3016 
@<TRIPOS>BOND
     1    1    2 1    
     2    1   67 1    
     3    1   68 1    
     4    1   69 1    
     5    2    3 2    
     6    2    4 am   BACKBONE|DICT|INTERRES
     7    4    5 1    
     8    4   70 1    
     9    5    6 1    
    10    5   65 1    
    11    5   71 1    
    12    6    7 1    
    13    6   72 1    
    14    6   73 1    
    15    7    8 1    
    16    8    9 1    
    17    8   74 1    
    18    8   75 1    
    19    9   10 ar   
    20    9   14 ar   
    21   10   11 ar   
    22   10   76 1    
    23   11   12 ar   
    24   11   48 1    
    25   12   13 ar   
    26   12   77 1    
    27   13   14 ar   
    28   13   15 1    
    29   14   78 1    
    30   15   16 1    
    31   15   79 1    
    32   15   80 1    
    33   16   17 1    
    34   17   18 1    
    35   17   81 1    
    36   17   82 1    
    37   18   19 1    
    38   18   22 1    
    39   18   83 1    
    40   19   20 am   BACKBONE|DICT|INTERRES
    41   19   21 2    
    42   20   84 1    
    43   20   85 1    
    44   22   23 am   BACKBONE|DICT|INTERRES
    45   22   86 1    
    46   23   24 2    
    47   23   25 1    
    48   25   26 1    
    49   25   27 1    
    50   25   87 1    
    51   26   88 1    
    52   26   89 1    
    53   26   90 1    
    54   27   28 am   BACKBONE|DICT|INTERRES
    55   27   91 1    
    56   28   29 2    
    57   28   30 1    
    58   30   31 1    
    59   30   32 1    
    60   30   92 1    
    61   31   93 1    
    62   31   94 1    
    63   31   95 1    
    64   32   33 am   BACKBONE|DICT|INTERRES
    65   32   96 1    
    66   33   34 2    
    67   33   35 1    
    68   35   36 1    
    69   35   37 1    
    70   35   97 1    
    71   36   98 1    
    72   36   99 1    
    73   36  100 1    
    74   37   38 am   BACKBONE|DICT|INTERRES
    75   37  101 1    
    76   38   39 2    
    77   38   40 1    
    78   40   41 1    
    79   40   42 1    
    80   40  102 1    
    81   41  103 1    
    82   41  104 1    
    83   41  105 1    
    84   42   43 am   BACKBONE|DICT|INTERRES
    85   42  106 1    
    86   43   44 2    
    87   43   45 1    
    88   45   46 1    
    89   45   49 1    
    90   45  107 1    
    91   46   47 1    
    92   46  108 1    
    93   46  109 1    
    94   47   48 1    
    95   48  110 1    
    96   48  111 1    
    97   49   50 am   BACKBONE|DICT|INTERRES
    98   49  112 1    
    99   50   51 2    
   100   50   52 1    
   101   52   53 1    
   102   52   54 1    
   103   52  113 1    
   104   53  114 1    
   105   53  115 1    
   106   53  116 1    
   107   54   55 am   BACKBONE|DICT|INTERRES
   108   54  117 1    
   109   55   56 2    
   110   55   57 1    
   111   57   58 1    
   112   57   59 1    
   113   57  118 1    
   114   58  119 1    
   115   58  120 1    
   116   58  121 1    
   117   59   60 am   BACKBONE|DICT|INTERRES
   118   59  122 1    
   119   60   61 2    
   120   60   62 1    
   121   62   63 1    
   122   62   64 1    
   123   62  123 1    
   124   63  124 1    
   125   63  125 1    
   126   63  126 1    
   127   64   65 am   BACKBONE|DICT|INTERRES
   128   64  127 1    
   129   65   66 2    
@<TRIPOS>SUBSTRUCTURE
     1 UNK         1 GROUP             0       ****    0 ROOT    
