@<TRIPOS>MOLECULE
3R134
127   129    1
SMALL
USER_CHARGES


@<TRIPOS>ATOM
      1 CA         35.1878  -48.5417  -53.0999 C.3       0 UNK        -0.1968 
      2 C          34.0706  -47.5198  -53.2359 C.2       0 UNK         0.4852 
      3 O          32.8970  -47.9029  -53.2438 O.2       0 UNK        -0.5359 
      4 N          34.4184  -46.2316  -53.3531 N.am      1 UNK        -0.4300 
      5 CA         33.4919  -45.1020  -53.4957 C.3       1 UNK         0.0863 
      6 C6         34.2396  -43.7536  -53.6531 C.3       11 UNK        -0.0953 
      7 S7         35.3767  -43.7469  -55.0828 S.3       11 UNK        -0.2369 
      8 C8         34.4960  -42.6924  -56.2794 C.3       11 UNK         0.0226 
      9 C9         33.1769  -43.3094  -56.7196 C.ar      11 UNK        -0.0699 
     10 C10        33.1675  -44.4146  -57.5768 C.ar      11 UNK        -0.0804 
     11 C11        31.9591  -45.0113  -57.9519 C.ar      11 UNK        -0.0871 
     12 C12        30.7579  -44.4829  -57.4743 C.ar      11 UNK        -0.1008 
     13 C13        30.7520  -43.3592  -56.6446 C.ar      11 UNK        -0.0735 
     14 C14        31.9654  -42.7765  -56.2692 C.ar      11 UNK        -0.0945 
     15 C15        29.4341  -42.7701  -56.1685 C.3       11 UNK         0.0169 
     16 S16        29.2239  -42.9832  -54.3772 S.3       11 UNK        -0.2669 
     17 C17        27.4191  -42.7787  -54.1974 C.3       11 UNK        -0.0850 
     18 CA         26.7237  -44.0396  -53.6178 C.3       10 UNK         0.0855 
     19 C          25.1889  -43.8053  -53.4936 C.2       10 UNK         0.5543 
     20 N          24.3437  -44.4927  -54.2541 N.am      10 UNK        -0.7343 
     21 O          24.7601  -42.9817  -52.6894 O.2       10 UNK        -0.5027 
     22 N          27.0902  -45.2637  -54.3487 N.am      10 UNK        -0.4495 
     23 C          26.9115  -46.5099  -53.8932 C.2       10 UNK         0.4903 
     24 O          26.5446  -46.7656  -52.7458 O.2       10 UNK        -0.4860 
     25 CA         27.1980  -47.6662  -54.8752 C.3       9 UNK         0.0227 
     26 CB         26.2746  -48.8770  -54.6258 C.3       9 UNK        -0.1964 
     27 N          27.1748  -47.2927  -56.2992 N.am      9 UNK        -0.4231 
     28 C          26.1527  -46.7455  -56.9809 C.2       9 UNK         0.5014 
     29 O          25.0870  -46.4175  -56.4569 O.2       9 UNK        -0.5270 
     30 CA         26.3336  -46.4952  -58.4863 C.3       8 UNK         0.0284 
     31 CB         26.7207  -45.0321  -58.7655 C.3       8 UNK        -0.1977 
     32 N          27.2873  -47.4146  -59.1158 N.am      8 UNK        -0.4342 
     33 C          27.2027  -47.8349  -60.3868 C.2       8 UNK         0.5039 
     34 O          26.3880  -47.3965  -61.2005 O.2       8 UNK        -0.5547 
     35 CA         28.1671  -48.9541  -60.8321 C.3       7 UNK         0.0281 
     36 CB         29.3796  -48.3629  -61.5693 C.3       7 UNK        -0.1963 
     37 N          28.6356  -49.7948  -59.7268 N.am      7 UNK        -0.4444 
     38 C          27.8517  -50.5572  -58.9524 C.2       7 UNK         0.5104 
     39 O          26.6576  -50.7524  -59.1807 O.2       7 UNK        -0.5100 
     40 CA         28.4779  -51.1847  -57.6914 C.3       6 UNK         0.0396 
     41 CB         28.5204  -52.7162  -57.8207 C.3       6 UNK        -0.1801 
     42 N          29.8146  -50.7130  -57.3047 N.am      6 UNK        -0.4747 
     43 C          30.2198  -49.4590  -57.0584 C.2       6 UNK         0.5012 
     44 O          29.5164  -48.4617  -57.2479 O.2       6 UNK        -0.5003 
     45 CA         31.6464  -49.3241  -56.4781 C.3       5 UNK         0.0782 
     46 C46        32.2430  -47.9026  -56.6151 C.3       11 UNK        -0.0868 
     47 S47        32.9552  -47.6024  -58.2661 S.3       11 UNK        -0.2515 
     48 C48        31.9325  -46.2248  -58.8740 C.3       11 UNK         0.0199 
     49 N          31.6894  -49.7747  -55.0831 N.am      5 UNK        -0.4607 
     50 C          31.6647  -51.0536  -54.6813 C.2       4 UNK         0.5031 
     51 O          31.6037  -52.0006  -55.4673 O.2       4 UNK        -0.5119 
     52 CA         31.7241  -51.3529  -53.1742 C.3       4 UNK         0.0263 
     53 CB         33.0141  -52.1150  -52.8184 C.3       4 UNK        -0.1967 
     54 N          31.6238  -50.1582  -52.3290 N.am      4 UNK        -0.4237 
     55 C          30.9864  -50.1163  -51.1517 C.2       3 UNK         0.4908 
     56 O          30.3259  -51.0516  -50.6979 O.2       3 UNK        -0.5102 
     57 CA         31.1193  -48.8336  -50.3195 C.3       3 UNK         0.0241 
     58 CB         32.4897  -48.7744  -49.6221 C.3       3 UNK        -0.1971 
     59 N          30.9216  -47.6186  -51.1152 N.am      3 UNK        -0.4139 
     60 C          30.1386  -46.5935  -50.7468 C.2       2 UNK         0.5016 
     61 O          29.4608  -46.5964  -49.7172 O.2       2 UNK        -0.5319 
     62 CA         30.0880  -45.3539  -51.6667 C.3       2 UNK         0.0286 
     63 CB         29.9002  -44.0454  -50.8665 C.3       2 UNK        -0.1963 
     64 N          31.2144  -45.2439  -52.6054 N.am      2 UNK        -0.4790 
     65 C          32.5080  -45.0531  -52.3083 C.2       1 UNK         0.5024 
     66 O          32.9444  -44.8939  -51.1665 O.2       1 UNK        -0.4888 
     67 H67        35.1452  -49.2515  -53.9256 H         1 UNK         0.0892 
     68 H68        35.0799  -49.0955  -52.1680 H         1 UNK         0.0892 
     69 H69        36.1717  -48.0732  -53.1051 H         1 UNK         0.0892 
     70 H70        35.3960  -45.9795  -53.3384 H         1 UNK         0.3107 
     71 H71        32.9205  -45.2751  -54.4106 H         1 UNK         0.0773 
     72 H72        34.8275  -43.5359  -52.7594 H         1 UNK         0.0680 
     73 H73        33.5299  -42.9305  -53.7531 H         1 UNK         0.0680 
     74 H74        34.3395  -41.7050  -55.8423 H         1 UNK         0.0650 
     75 H75        35.1326  -42.5431  -57.1525 H         1 UNK         0.0650 
     76 H76        34.1028  -44.8245  -57.9332 H         1 UNK         0.1397 
     77 H77        29.8258  -44.9474  -57.7571 H         1 UNK         0.1363 
     78 H78        31.9622  -41.9140  -55.6167 H         1 UNK         0.1355 
     79 H79        28.6007  -43.2387  -56.6932 H         1 UNK         0.0707 
     80 H80        29.3964  -41.7075  -56.4127 H         1 UNK         0.0707 
     81 H81        27.2483  -41.9227  -53.5416 H         1 UNK         0.1034 
     82 H82        26.9775  -42.5070  -55.1580 H         1 UNK         0.1034 
     83 H83        27.0882  -44.1615  -52.5959 H         1 UNK         0.0482 
     84 H84        24.6810  -45.1700  -54.9305 H         1 UNK         0.3460 
     85 H85        23.3539  -44.3310  -54.1602 H         1 UNK         0.3460 
     86 H86        27.4034  -45.1387  -55.2982 H         1 UNK         0.2989 
     87 H87        28.2206  -47.9852  -54.6679 H         1 UNK         0.0559 
     88 H88        26.3966  -49.2644  -53.6135 H         1 UNK         0.0848 
     89 H89        26.4957  -49.6948  -55.3101 H         1 UNK         0.0848 
     90 H90        25.2235  -48.6133  -54.7483 H         1 UNK         0.0848 
     91 H91        28.0407  -47.5154  -56.7840 H         1 UNK         0.3144 
     92 H92        25.3501  -46.6703  -58.9287 H         1 UNK         0.0727 
     93 H93        26.7003  -44.8148  -59.8335 H         1 UNK         0.0790 
     94 H94        27.7174  -44.8004  -58.3984 H         1 UNK         0.0790 
     95 H95        26.0252  -44.3431  -58.2840 H         1 UNK         0.0790 
     96 H96        27.9898  -47.8432  -58.5243 H         1 UNK         0.3215 
     97 H97        27.6211  -49.5951  -61.5277 H         1 UNK         0.0863 
     98 H98        30.0269  -49.1469  -61.9628 H         1 UNK         0.0808 
     99 H99        29.9790  -47.7263  -60.9187 H         1 UNK         0.0808 
    100 H100       29.0608  -47.7535  -62.4162 H         1 UNK         0.0808 
    101 H101       29.6026  -49.6960  -59.4544 H         1 UNK         0.3118 
    102 H102       27.8112  -50.9381  -56.8641 H         1 UNK         0.0546 
    103 H103       27.5347  -53.1206  -58.0557 H         1 UNK         0.0828 
    104 H104       28.8447  -53.1851  -56.8913 H         1 UNK         0.0828 
    105 H105       29.2001  -53.0335  -58.6123 H         1 UNK         0.0828 
    106 H106       30.4659  -51.4438  -57.0338 H         1 UNK         0.3005 
    107 H107       32.2869  -50.0006  -57.0496 H         1 UNK         0.1257 
    108 H108       33.0776  -47.7822  -55.9257 H         1 UNK         0.0775 
    109 H109       31.5244  -47.1319  -56.3328 H         1 UNK         0.0775 
    110 H110       32.2861  -45.9286  -59.8623 H         1 UNK         0.0840 
    111 H111       30.9121  -46.5874  -59.0059 H         1 UNK         0.0840 
    112 H112       31.7911  -49.0417  -54.3917 H         1 UNK         0.2987 
    113 H113       30.8738  -52.0089  -52.9760 H         1 UNK         0.0785 
    114 H114       33.9014  -51.5062  -52.9946 H         1 UNK         0.0798 
    115 H115       33.1150  -53.0218  -53.4164 H         1 UNK         0.0798 
    116 H116       33.0189  -52.4190  -51.7716 H         1 UNK         0.0798 
    117 H117       32.1584  -49.3439  -52.6281 H         1 UNK         0.3079 
    118 H118       30.3555  -48.8978  -49.5414 H         1 UNK         0.0794 
    119 H119       33.3062  -48.6832  -50.3387 H         1 UNK         0.0786 
    120 H120       32.6692  -49.6742  -49.0320 H         1 UNK         0.0786 
    121 H121       32.5481  -47.9239  -48.9426 H         1 UNK         0.0786 
    122 H122       31.4674  -47.5342  -51.9670 H         1 UNK         0.3032 
    123 H123       29.1996  -45.4851  -52.2838 H         1 UNK         0.1094 
    124 H124       29.8990  -43.1715  -51.5166 H         1 UNK         0.0794 
    125 H125       28.9493  -44.0482  -50.3323 H         1 UNK         0.0794 
    126 H126       30.6870  -43.9077  -50.1245 H         1 UNK         0.0794 
    127 H127       30.9684  -45.3554  -53.5797 H         1 UNK         0.3016 
@<TRIPOS>BOND
     1    1    2 1    
     2    1   67 1    
     3    1   68 1    
     4    1   69 1    
     5    2    3 2    
     6    2    4 am   BACKBONE|DICT|INTERRES
     7    4    5 1    
     8    4   70 1    
     9    5    6 1    
    10    5   65 1    
    11    5   71 1    
    12    6    7 1    
    13    6   72 1    
    14    6   73 1    
    15    7    8 1    
    16    8    9 1    
    17    8   74 1    
    18    8   75 1    
    19    9   10 ar   
    20    9   14 ar   
    21   10   11 ar   
    22   10   76 1    
    23   11   12 ar   
    24   11   48 1    
    25   12   13 ar   
    26   12   77 1    
    27   13   14 ar   
    28   13   15 1    
    29   14   78 1    
    30   15   16 1    
    31   15   79 1    
    32   15   80 1    
    33   16   17 1    
    34   17   18 1    
    35   17   81 1    
    36   17   82 1    
    37   18   19 1    
    38   18   22 1    
    39   18   83 1    
    40   19   20 am   BACKBONE|DICT|INTERRES
    41   19   21 2    
    42   20   84 1    
    43   20   85 1    
    44   22   23 am   BACKBONE|DICT|INTERRES
    45   22   86 1    
    46   23   24 2    
    47   23   25 1    
    48   25   26 1    
    49   25   27 1    
    50   25   87 1    
    51   26   88 1    
    52   26   89 1    
    53   26   90 1    
    54   27   28 am   BACKBONE|DICT|INTERRES
    55   27   91 1    
    56   28   29 2    
    57   28   30 1    
    58   30   31 1    
    59   30   32 1    
    60   30   92 1    
    61   31   93 1    
    62   31   94 1    
    63   31   95 1    
    64   32   33 am   BACKBONE|DICT|INTERRES
    65   32   96 1    
    66   33   34 2    
    67   33   35 1    
    68   35   36 1    
    69   35   37 1    
    70   35   97 1    
    71   36   98 1    
    72   36   99 1    
    73   36  100 1    
    74   37   38 am   BACKBONE|DICT|INTERRES
    75   37  101 1    
    76   38   39 2    
    77   38   40 1    
    78   40   41 1    
    79   40   42 1    
    80   40  102 1    
    81   41  103 1    
    82   41  104 1    
    83   41  105 1    
    84   42   43 am   BACKBONE|DICT|INTERRES
    85   42  106 1    
    86   43   44 2    
    87   43   45 1    
    88   45   46 1    
    89   45   49 1    
    90   45  107 1    
    91   46   47 1    
    92   46  108 1    
    93   46  109 1    
    94   47   48 1    
    95   48  110 1    
    96   48  111 1    
    97   49   50 am   BACKBONE|DICT|INTERRES
    98   49  112 1    
    99   50   51 2    
   100   50   52 1    
   101   52   53 1    
   102   52   54 1    
   103   52  113 1    
   104   53  114 1    
   105   53  115 1    
   106   53  116 1    
   107   54   55 am   BACKBONE|DICT|INTERRES
   108   54  117 1    
   109   55   56 2    
   110   55   57 1    
   111   57   58 1    
   112   57   59 1    
   113   57  118 1    
   114   58  119 1    
   115   58  120 1    
   116   58  121 1    
   117   59   60 am   BACKBONE|DICT|INTERRES
   118   59  122 1    
   119   60   61 2    
   120   60   62 1    
   121   62   63 1    
   122   62   64 1    
   123   62  123 1    
   124   63  124 1    
   125   63  125 1    
   126   63  126 1    
   127   64   65 am   BACKBONE|DICT|INTERRES
   128   64  127 1    
   129   65   66 2    
@<TRIPOS>SUBSTRUCTURE
     1 UNK         1 GROUP             0       ****    0 ROOT    
