@<TRIPOS>MOLECULE
3R134
127   129    1
SMALL
USER_CHARGES


@<TRIPOS>ATOM
      1 CA         35.6967  -41.9275  -59.0738 C.3       0 UNK        -0.1968 
      2 C          34.7449  -42.8891  -58.3768 C.2       0 UNK         0.4852 
      3 O          33.8497  -43.4361  -59.0224 O.2       0 UNK        -0.5359 
      4 N          34.9279  -43.0915  -57.0654 N.am      1 UNK        -0.4300 
      5 CA         34.1549  -44.0264  -56.2446 C.3       1 UNK         0.0863 
      6 C6         34.3799  -43.7465  -54.7359 C.3       11 UNK        -0.0953 
      7 S7         33.2268  -44.6692  -53.6658 S.3       11 UNK        -0.2369 
      8 C8         32.1677  -43.3471  -53.0132 C.3       11 UNK         0.0226 
      9 C9         30.9167  -43.9393  -52.3859 C.ar      11 UNK        -0.0699 
     10 C10        30.9933  -44.6287  -51.1725 C.ar      11 UNK        -0.0804 
     11 C11        29.8532  -45.2178  -50.6179 C.ar      11 UNK        -0.0871 
     12 C12        28.6244  -45.0938  -51.2737 C.ar      11 UNK        -0.1008 
     13 C13        28.5393  -44.4126  -52.4914 C.ar      11 UNK        -0.0735 
     14 C14        29.6862  -43.8287  -53.0369 C.ar      11 UNK        -0.0945 
     15 C15        27.2143  -44.3263  -53.2332 C.3       11 UNK         0.0169 
     16 S16        26.7899  -45.8874  -54.0744 S.3       11 UNK        -0.2669 
     17 C17        28.2395  -46.1848  -55.1476 C.3       11 UNK        -0.0850 
     18 CA         28.3931  -45.1713  -56.3120 C.3       10 UNK         0.0855 
     19 C          29.6970  -45.4471  -57.1168 C.2       10 UNK         0.5543 
     20 N          29.6423  -45.7250  -58.4145 N.am      10 UNK        -0.7343 
     21 O          30.7839  -45.4102  -56.5454 O.2       10 UNK        -0.5027 
     22 N          27.1775  -45.0822  -57.1357 N.am      10 UNK        -0.4495 
     23 C          26.8535  -44.0198  -57.8867 C.2       10 UNK         0.4903 
     24 O          27.4965  -42.9686  -57.8852 O.2       10 UNK        -0.4860 
     25 CA         25.6067  -44.1430  -58.7911 C.3       9 UNK         0.0227 
     26 CB         25.6780  -43.2155  -60.0233 C.3       9 UNK        -0.1964 
     27 N          25.3011  -45.5196  -59.2032 N.am      9 UNK        -0.4231 
     28 C          26.1056  -46.3624  -59.8666 C.2       9 UNK         0.5014 
     29 O          27.2416  -46.0831  -60.2583 O.2       9 UNK        -0.5270 
     30 CA         25.5663  -47.7890  -60.0665 C.3       8 UNK         0.0284 
     31 CB         25.5144  -48.1547  -61.5595 C.3       8 UNK        -0.1977 
     32 N          26.3801  -48.7745  -59.3494 N.am      8 UNK        -0.4342 
     33 C          26.6175  -48.7652  -58.0308 C.2       8 UNK         0.5039 
     34 O          26.1480  -47.9291  -57.2530 O.2       8 UNK        -0.5547 
     35 CA         27.5794  -49.8447  -57.5087 C.3       7 UNK         0.0281 
     36 CB         29.0333  -49.4608  -57.8243 C.3       7 UNK        -0.1963 
     37 N          27.4437  -50.0179  -56.0620 N.am      7 UNK        -0.4444 
     38 C          26.4762  -50.7253  -55.4647 C.2       7 UNK         0.5104 
     39 O          25.6368  -51.3836  -56.0815 O.2       7 UNK        -0.5100 
     40 CA         26.4407  -50.7091  -53.9252 C.3       6 UNK         0.0396 
     41 CB         26.3070  -52.1287  -53.3433 C.3       6 UNK        -0.1801 
     42 N          27.6227  -50.0624  -53.3432 N.am      6 UNK        -0.4747 
     43 C          27.6110  -49.2147  -52.3045 C.2       6 UNK         0.5012 
     44 O          26.5754  -48.8584  -51.7403 O.2       6 UNK        -0.5003 
     45 CA         28.9731  -48.6613  -51.8137 C.3       5 UNK         0.0782 
     46 C46        29.0028  -48.5044  -50.2652 C.3       11 UNK        -0.0868 
     47 S47        30.5233  -47.7128  -49.6364 S.3       11 UNK        -0.2515 
     48 C48        29.9635  -46.0074  -49.3234 C.3       11 UNK         0.0199 
     49 N          30.1359  -49.3815  -52.3641 N.am      5 UNK        -0.4607 
     50 C          30.5029  -50.6459  -52.1043 C.2       4 UNK         0.5031 
     51 O          29.8768  -51.4074  -51.3677 O.2       4 UNK        -0.5119 
     52 CA         31.7592  -51.1715  -52.8235 C.3       4 UNK         0.0263 
     53 CB         31.3552  -51.9883  -54.0628 C.3       4 UNK        -0.1967 
     54 N          32.6952  -50.1209  -53.2347 N.am      4 UNK        -0.4237 
     55 C          33.4534  -49.3882  -52.4086 C.2       3 UNK         0.4908 
     56 O          33.4590  -49.5384  -51.1867 O.2       3 UNK        -0.5102 
     57 CA         34.3490  -48.2929  -53.0238 C.3       3 UNK         0.0241 
     58 CB         35.8384  -48.6832  -52.9432 C.3       3 UNK        -0.1971 
     59 N          33.9898  -47.8563  -54.3841 N.am      3 UNK        -0.4139 
     60 C          34.0562  -48.5359  -55.5398 C.2       2 UNK         0.5016 
     61 O          34.3872  -49.7187  -55.6158 O.2       2 UNK        -0.5319 
     62 CA         33.6271  -47.8007  -56.8240 C.3       2 UNK         0.0286 
     63 CB         32.2917  -48.3669  -57.3288 C.3       2 UNK        -0.1963 
     64 N          33.4860  -46.3522  -56.6464 N.am      2 UNK        -0.4790 
     65 C          34.5067  -45.4863  -56.6054 C.2       1 UNK         0.5024 
     66 O          35.6843  -45.8074  -56.7842 O.2       1 UNK        -0.4888 
     67 H67        36.4285  -41.5057  -58.3851 H         1 UNK         0.0892 
     68 H68        35.1386  -41.1050  -59.5204 H         1 UNK         0.0892 
     69 H69        36.2365  -42.4438  -59.8672 H         1 UNK         0.0892 
     70 H70        35.7003  -42.6371  -56.5996 H         1 UNK         0.3107 
     71 H71        33.0990  -43.8575  -56.4694 H         1 UNK         0.0773 
     72 H72        35.4006  -43.9987  -54.4415 H         1 UNK         0.0680 
     73 H73        34.2672  -42.6802  -54.5332 H         1 UNK         0.0680 
     74 H74        32.7200  -42.7673  -52.2724 H         1 UNK         0.0650 
     75 H75        31.9034  -42.6612  -53.8197 H         1 UNK         0.0650 
     76 H76        31.9486  -44.7320  -50.6758 H         1 UNK         0.1397 
     77 H77        27.7388  -45.5536  -50.8560 H         1 UNK         0.1363 
     78 H78        29.6275  -43.3050  -53.9806 H         1 UNK         0.1355 
     79 H79        27.2298  -43.5156  -53.9630 H         1 UNK         0.0707 
     80 H80        26.4195  -44.0809  -52.5274 H         1 UNK         0.0707 
     81 H81        28.1440  -47.1930  -55.5493 H         1 UNK         0.1034 
     82 H82        29.1367  -46.2004  -54.5265 H         1 UNK         0.1034 
     83 H83        28.5463  -44.1905  -55.8616 H         1 UNK         0.0482 
     84 H84        30.4996  -45.8833  -58.9171 H         1 UNK         0.3460 
     85 H85        28.7576  -45.7570  -58.9089 H         1 UNK         0.3460 
     86 H86        26.6195  -45.9289  -57.1920 H         1 UNK         0.2989 
     87 H87        24.7633  -43.8162  -58.1814 H         1 UNK         0.0559 
     88 H88        26.5406  -43.4435  -60.6505 H         1 UNK         0.0848 
     89 H89        25.7613  -42.1697  -59.7248 H         1 UNK         0.0848 
     90 H90        24.7831  -43.3026  -60.6393 H         1 UNK         0.0848 
     91 H91        24.4106  -45.8765  -58.8837 H         1 UNK         0.3144 
     92 H92        24.5513  -47.8471  -59.6678 H         1 UNK         0.0727 
     93 H93        25.0760  -49.1409  -61.7133 H         1 UNK         0.0790 
     94 H94        26.5075  -48.1533  -62.0111 H         1 UNK         0.0790 
     95 H95        24.9045  -47.4402  -62.1140 H         1 UNK         0.0790 
     96 H96        26.8376  -49.4729  -59.9173 H         1 UNK         0.3215 
     97 H97        27.3477  -50.7908  -58.0032 H         1 UNK         0.0863 
     98 H98        29.7341  -50.2024  -57.4403 H         1 UNK         0.0808 
     99 H99        29.2923  -48.4940  -57.3944 H         1 UNK         0.0808 
    100 H100       29.1992  -49.3884  -58.8999 H         1 UNK         0.0808 
    101 H101       28.0234  -49.4352  -55.4809 H         1 UNK         0.3118 
    102 H102       25.5444  -50.1450  -53.6596 H         1 UNK         0.0546 
    103 H103       25.4137  -52.6287  -53.7197 H         1 UNK         0.0828 
    104 H104       26.2271  -52.1044  -52.2564 H         1 UNK         0.0828 
    105 H105       27.1648  -52.7507  -53.6014 H         1 UNK         0.0828 
    106 H106       28.5192  -50.3494  -53.7083 H         1 UNK         0.3005 
    107 H107       29.0287  -47.6590  -52.2392 H         1 UNK         0.1257 
    108 H108       28.9092  -49.4787  -49.7832 H         1 UNK         0.0775 
    109 H109       28.1462  -47.9244  -49.9180 H         1 UNK         0.0775 
    110 H110       29.0134  -46.0142  -48.7869 H         1 UNK         0.0840 
    111 H111       30.6795  -45.5203  -48.6597 H         1 UNK         0.0840 
    112 H112       30.7339  -48.8405  -52.9712 H         1 UNK         0.2987 
    113 H113       32.2791  -51.8344  -52.1284 H         1 UNK         0.0785 
    114 H114       30.8553  -51.3720  -54.8112 H         1 UNK         0.0798 
    115 H115       30.6722  -52.7958  -53.7946 H         1 UNK         0.0798 
    116 H116       32.2246  -52.4470  -54.5346 H         1 UNK         0.0798 
    117 H117       32.8501  -50.0003  -54.2284 H         1 UNK         0.3079 
    118 H118       34.2106  -47.4126  -52.3939 H         1 UNK         0.0794 
    119 H119       36.4784  -47.8804  -53.3095 H         1 UNK         0.0786 
    120 H120       36.1326  -48.8870  -51.9128 H         1 UNK         0.0786 
    121 H121       36.0573  -49.5795  -53.5242 H         1 UNK         0.0786 
    122 H122       33.6608  -46.9005  -54.4445 H         1 UNK         0.3032 
    123 H123       34.3925  -47.9910  -57.5799 H         1 UNK         0.1094 
    124 H124       31.9807  -47.8882  -58.2573 H         1 UNK         0.0794 
    125 H125       32.3663  -49.4372  -57.5264 H         1 UNK         0.0794 
    126 H126       31.4997  -48.2231  -56.5936 H         1 UNK         0.0794 
    127 H127       32.5381  -45.9988  -56.5154 H         1 UNK         0.3016 
@<TRIPOS>BOND
     1    1    2 1    
     2    1   67 1    
     3    1   68 1    
     4    1   69 1    
     5    2    3 2    
     6    2    4 am   BACKBONE|DICT|INTERRES
     7    4    5 1    
     8    4   70 1    
     9    5    6 1    
    10    5   65 1    
    11    5   71 1    
    12    6    7 1    
    13    6   72 1    
    14    6   73 1    
    15    7    8 1    
    16    8    9 1    
    17    8   74 1    
    18    8   75 1    
    19    9   10 ar   
    20    9   14 ar   
    21   10   11 ar   
    22   10   76 1    
    23   11   12 ar   
    24   11   48 1    
    25   12   13 ar   
    26   12   77 1    
    27   13   14 ar   
    28   13   15 1    
    29   14   78 1    
    30   15   16 1    
    31   15   79 1    
    32   15   80 1    
    33   16   17 1    
    34   17   18 1    
    35   17   81 1    
    36   17   82 1    
    37   18   19 1    
    38   18   22 1    
    39   18   83 1    
    40   19   20 am   BACKBONE|DICT|INTERRES
    41   19   21 2    
    42   20   84 1    
    43   20   85 1    
    44   22   23 am   BACKBONE|DICT|INTERRES
    45   22   86 1    
    46   23   24 2    
    47   23   25 1    
    48   25   26 1    
    49   25   27 1    
    50   25   87 1    
    51   26   88 1    
    52   26   89 1    
    53   26   90 1    
    54   27   28 am   BACKBONE|DICT|INTERRES
    55   27   91 1    
    56   28   29 2    
    57   28   30 1    
    58   30   31 1    
    59   30   32 1    
    60   30   92 1    
    61   31   93 1    
    62   31   94 1    
    63   31   95 1    
    64   32   33 am   BACKBONE|DICT|INTERRES
    65   32   96 1    
    66   33   34 2    
    67   33   35 1    
    68   35   36 1    
    69   35   37 1    
    70   35   97 1    
    71   36   98 1    
    72   36   99 1    
    73   36  100 1    
    74   37   38 am   BACKBONE|DICT|INTERRES
    75   37  101 1    
    76   38   39 2    
    77   38   40 1    
    78   40   41 1    
    79   40   42 1    
    80   40  102 1    
    81   41  103 1    
    82   41  104 1    
    83   41  105 1    
    84   42   43 am   BACKBONE|DICT|INTERRES
    85   42  106 1    
    86   43   44 2    
    87   43   45 1    
    88   45   46 1    
    89   45   49 1    
    90   45  107 1    
    91   46   47 1    
    92   46  108 1    
    93   46  109 1    
    94   47   48 1    
    95   48  110 1    
    96   48  111 1    
    97   49   50 am   BACKBONE|DICT|INTERRES
    98   49  112 1    
    99   50   51 2    
   100   50   52 1    
   101   52   53 1    
   102   52   54 1    
   103   52  113 1    
   104   53  114 1    
   105   53  115 1    
   106   53  116 1    
   107   54   55 am   BACKBONE|DICT|INTERRES
   108   54  117 1    
   109   55   56 2    
   110   55   57 1    
   111   57   58 1    
   112   57   59 1    
   113   57  118 1    
   114   58  119 1    
   115   58  120 1    
   116   58  121 1    
   117   59   60 am   BACKBONE|DICT|INTERRES
   118   59  122 1    
   119   60   61 2    
   120   60   62 1    
   121   62   63 1    
   122   62   64 1    
   123   62  123 1    
   124   63  124 1    
   125   63  125 1    
   126   63  126 1    
   127   64   65 am   BACKBONE|DICT|INTERRES
   128   64  127 1    
   129   65   66 2    
@<TRIPOS>SUBSTRUCTURE
     1 UNK         1 GROUP             0       ****    0 ROOT    
