@<TRIPOS>MOLECULE
3R134
127   129    1
SMALL
USER_CHARGES


@<TRIPOS>ATOM
      1 CA         35.3877  -43.2868  -50.9561 C.3       0 UNK        -0.1968 
      2 C          35.6389  -44.6636  -50.3429 C.2       0 UNK         0.4852 
      3 O          35.7648  -44.7595  -49.1229 O.2       0 UNK        -0.5359 
      4 N          35.7218  -45.7492  -51.1219 N.am      1 UNK        -0.4300 
      5 CA         35.6254  -45.8371  -52.5779 C.3       1 UNK         0.0863 
      6 C6         34.1854  -45.5840  -53.1066 C.3       11 UNK        -0.0953 
      7 S7         34.1878  -44.8316  -54.7676 S.3       11 UNK        -0.2369 
      8 C8         33.3014  -43.2692  -54.4743 C.3       11 UNK         0.0226 
      9 C9         31.7957  -43.4807  -54.4003 C.ar      11 UNK        -0.0699 
     10 C10        31.1474  -43.5821  -53.1653 C.ar      11 UNK        -0.0804 
     11 C11        29.7604  -43.7536  -53.1020 C.ar      11 UNK        -0.0871 
     12 C12        29.0207  -43.8253  -54.2872 C.ar      11 UNK        -0.1008 
     13 C13        29.6591  -43.7214  -55.5270 C.ar      11 UNK        -0.0735 
     14 C14        31.0453  -43.5514  -55.5770 C.ar      11 UNK        -0.0945 
     15 C15        28.8562  -43.7917  -56.8151 C.3       11 UNK         0.0169 
     16 S16        28.1153  -42.1828  -57.2185 S.3       11 UNK        -0.2669 
     17 C17        27.6661  -42.4154  -58.9727 C.3       11 UNK        -0.0850 
     18 CA         26.2649  -43.0529  -59.1482 C.3       10 UNK         0.0855 
     19 C          25.7314  -42.8407  -60.5904 C.2       10 UNK         0.5543 
     20 N          25.0210  -41.7477  -60.8317 N.am      10 UNK        -0.7343 
     21 O          25.9883  -43.6303  -61.4974 O.2       10 UNK        -0.5027 
     22 N          26.2842  -44.4773  -58.7934 N.am      10 UNK        -0.4495 
     23 C          25.2170  -45.1884  -58.4240 C.2       10 UNK         0.4903 
     24 O          24.1034  -44.6950  -58.2409 O.2       10 UNK        -0.4860 
     25 CA         25.3954  -46.7032  -58.2106 C.3       9 UNK         0.0227 
     26 CB         24.9042  -47.4883  -59.4418 C.3       9 UNK        -0.1964 
     27 N          26.7317  -47.1618  -57.8004 N.am      9 UNK        -0.4231 
     28 C          27.8877  -47.1663  -58.4823 C.2       9 UNK         0.5014 
     29 O          28.0578  -46.5797  -59.5512 O.2       9 UNK        -0.5270 
     30 CA         29.0490  -47.9830  -57.8804 C.3       8 UNK         0.0284 
     31 CB         29.9254  -47.1229  -56.9572 C.3       8 UNK        -0.1977 
     32 N          28.5926  -49.1635  -57.1434 N.am      8 UNK        -0.4342 
     33 C          27.9890  -50.2297  -57.6886 C.2       8 UNK         0.5039 
     34 O          27.8100  -50.3782  -58.8979 O.2       8 UNK        -0.5547 
     35 CA         27.4766  -51.2995  -56.7131 C.3       7 UNK         0.0281 
     36 CB         28.6124  -52.2447  -56.2852 C.3       7 UNK        -0.1963 
     37 N          26.8646  -50.6874  -55.5315 N.am      7 UNK        -0.4444 
     38 C          25.6099  -50.2165  -55.4886 C.2       7 UNK         0.5104 
     39 O          24.8103  -50.3129  -56.4194 O.2       7 UNK        -0.5100 
     40 CA         25.1652  -49.5145  -54.1913 C.3       6 UNK         0.0396 
     41 CB         24.4828  -50.5176  -53.2480 C.3       6 UNK        -0.1801 
     42 N          26.2606  -48.8501  -53.4795 N.am      6 UNK        -0.4747 
     43 C          26.8964  -47.7516  -53.9139 C.2       6 UNK         0.5012 
     44 O          26.6044  -47.1615  -54.9527 O.2       6 UNK        -0.5003 
     45 CA         28.0980  -47.2643  -53.0779 C.3       5 UNK         0.0782 
     46 C46        27.6325  -46.2572  -52.0006 C.3       11 UNK        -0.0868 
     47 S47        29.0272  -45.5179  -51.0844 S.3       11 UNK        -0.2515 
     48 C48        29.0650  -43.8230  -51.7496 C.3       11 UNK         0.0199 
     49 N          28.8857  -48.3688  -52.5098 N.am      5 UNK        -0.4607 
     50 C          29.4808  -49.3250  -53.2321 C.2       4 UNK         0.5031 
     51 O          29.3503  -49.4370  -54.4527 O.2       4 UNK        -0.5119 
     52 CA         30.3198  -50.3623  -52.4697 C.3       4 UNK         0.0263 
     53 CB         29.4636  -51.5954  -52.1386 C.3       4 UNK        -0.1967 
     54 N          31.4788  -50.7782  -53.2641 N.am      4 UNK        -0.4237 
     55 C          32.4867  -49.9598  -53.5913 C.2       3 UNK         0.4908 
     56 O          32.6129  -48.8190  -53.1397 O.2       3 UNK        -0.5102 
     57 CA         33.5060  -50.4927  -54.6057 C.3       3 UNK         0.0241 
     58 CB         32.8669  -50.6796  -55.9957 C.3       3 UNK        -0.1971 
     59 N          34.6004  -49.5318  -54.7004 N.am      3 UNK        -0.4139 
     60 C          35.8855  -49.8118  -54.9348 C.2       2 UNK         0.5016 
     61 O          36.3069  -50.9476  -55.1591 O.2       2 UNK        -0.5319 
     62 CA         36.8768  -48.6306  -54.9298 C.3       2 UNK         0.0286 
     63 CB         37.3354  -48.3110  -56.3626 C.3       2 UNK        -0.1963 
     64 N          36.3499  -47.4030  -54.3191 N.am      2 UNK        -0.4790 
     65 C          36.1749  -47.2127  -53.0050 C.2       1 UNK         0.5024 
     66 O          36.4312  -48.0681  -52.1524 O.2       1 UNK        -0.4888 
     67 H67        34.3192  -43.0761  -50.9795 H         1 UNK         0.0892 
     68 H68        35.8649  -42.5167  -50.3506 H         1 UNK         0.0892 
     69 H69        35.7818  -43.1906  -51.9657 H         1 UNK         0.0892 
     70 H70        35.9258  -46.6486  -50.7009 H         1 UNK         0.3107 
     71 H71        36.3132  -45.0978  -52.9921 H         1 UNK         0.0773 
     72 H72        33.6376  -44.9285  -52.4320 H         1 UNK         0.0680 
     73 H73        33.5964  -46.4994  -53.1351 H         1 UNK         0.0680 
     74 H74        33.5303  -42.5820  -55.2901 H         1 UNK         0.0650 
     75 H75        33.6739  -42.7925  -53.5666 H         1 UNK         0.0650 
     76 H76        31.7195  -43.5184  -52.2502 H         1 UNK         0.1397 
     77 H77        27.9469  -43.9487  -54.2488 H         1 UNK         0.1363 
     78 H78        31.5430  -43.4690  -56.5336 H         1 UNK         0.1355 
     79 H79        29.4934  -44.1140  -57.6393 H         1 UNK         0.0707 
     80 H80        28.0692  -44.5396  -56.7136 H         1 UNK         0.0707 
     81 H81        27.6925  -41.4244  -59.4306 H         1 UNK         0.1034 
     82 H82        28.4319  -42.9979  -59.4884 H         1 UNK         0.1034 
     83 H83        25.5779  -42.5445  -58.4680 H         1 UNK         0.0482 
     84 H84        24.8123  -41.0885  -60.0975 H         1 UNK         0.3460 
     85 H85        24.6775  -41.5821  -61.7650 H         1 UNK         0.3460 
     86 H86        27.1199  -44.9986  -59.0392 H         1 UNK         0.2989 
     87 H87        24.7429  -46.9678  -57.3769 H         1 UNK         0.0559 
     88 H88        25.5062  -47.2748  -60.3258 H         1 UNK         0.0848 
     89 H89        23.8719  -47.2314  -59.6830 H         1 UNK         0.0848 
     90 H90        24.9379  -48.5635  -59.2638 H         1 UNK         0.0848 
     91 H91        26.7597  -47.5352  -56.8557 H         1 UNK         0.3144 
     92 H92        29.6693  -48.3321  -58.7084 H         1 UNK         0.0727 
     93 H93        29.3505  -46.6985  -56.1343 H         1 UNK         0.0790 
     94 H94        30.3788  -46.2991  -57.5083 H         1 UNK         0.0790 
     95 H95        30.7403  -47.7047  -56.5255 H         1 UNK         0.0790 
     96 H96        28.7713  -49.1752  -56.1398 H         1 UNK         0.3215 
     97 H97        26.7228  -51.8949  -57.2336 H         1 UNK         0.0863 
     98 H98        28.2483  -53.0241  -55.6159 H         1 UNK         0.0808 
     99 H99        29.4183  -51.7154  -55.7768 H         1 UNK         0.0808 
    100 H100       29.0492  -52.7412  -57.1527 H         1 UNK         0.0808 
    101 H101       27.4780  -50.5015  -54.7493 H         1 UNK         0.3118 
    102 H102       24.4311  -48.7535  -54.4654 H         1 UNK         0.0546 
    103 H103       25.1702  -51.2987  -52.9207 H         1 UNK         0.0828 
    104 H104       23.6439  -51.0092  -53.7429 H         1 UNK         0.0828 
    105 H105       24.0872  -50.0232  -52.3607 H         1 UNK         0.0828 
    106 H106       26.5702  -49.2724  -52.6157 H         1 UNK         0.3005 
    107 H107       28.7583  -46.7336  -53.7674 H         1 UNK         0.1257 
    108 H108       26.9791  -46.7484  -51.2770 H         1 UNK         0.0775 
    109 H109       27.0350  -45.4615  -52.4493 H         1 UNK         0.0775 
    110 H110       28.0528  -43.4207  -51.8139 H         1 UNK         0.0840 
    111 H111       29.5912  -43.1848  -51.0380 H         1 UNK         0.0840 
    112 H112       29.0405  -48.3330  -51.5124 H         1 UNK         0.2987 
    113 H113       30.6801  -49.9170  -51.5397 H         1 UNK         0.0785 
    114 H114       28.6040  -51.3226  -51.5248 H         1 UNK         0.0798 
    115 H115       30.0353  -52.3361  -51.5791 H         1 UNK         0.0798 
    116 H116       29.0812  -52.0777  -53.0393 H         1 UNK         0.0798 
    117 H117       31.4312  -51.6908  -53.6923 H         1 UNK         0.3079 
    118 H118       33.8844  -51.4487  -54.2375 H         1 UNK         0.0794 
    119 H119       32.0676  -51.4209  -55.9707 H         1 UNK         0.0786 
    120 H120       33.6001  -51.0233  -56.7257 H         1 UNK         0.0786 
    121 H121       32.4360  -49.7490  -56.3679 H         1 UNK         0.0786 
    122 H122       34.3441  -48.5865  -54.4450 H         1 UNK         0.3032 
    123 H123       37.7490  -48.9514  -54.3552 H         1 UNK         0.1094 
    124 H124       38.0999  -47.5337  -56.3714 H         1 UNK         0.0794 
    125 H125       37.7672  -49.1914  -56.8410 H         1 UNK         0.0794 
    126 H126       36.5059  -47.9756  -56.9865 H         1 UNK         0.0794 
    127 H127       36.0916  -46.6560  -54.9508 H         1 UNK         0.3016 
@<TRIPOS>BOND
     1    1    2 1    
     2    1   67 1    
     3    1   68 1    
     4    1   69 1    
     5    2    3 2    
     6    2    4 am   BACKBONE|DICT|INTERRES
     7    4    5 1    
     8    4   70 1    
     9    5    6 1    
    10    5   65 1    
    11    5   71 1    
    12    6    7 1    
    13    6   72 1    
    14    6   73 1    
    15    7    8 1    
    16    8    9 1    
    17    8   74 1    
    18    8   75 1    
    19    9   10 ar   
    20    9   14 ar   
    21   10   11 ar   
    22   10   76 1    
    23   11   12 ar   
    24   11   48 1    
    25   12   13 ar   
    26   12   77 1    
    27   13   14 ar   
    28   13   15 1    
    29   14   78 1    
    30   15   16 1    
    31   15   79 1    
    32   15   80 1    
    33   16   17 1    
    34   17   18 1    
    35   17   81 1    
    36   17   82 1    
    37   18   19 1    
    38   18   22 1    
    39   18   83 1    
    40   19   20 am   BACKBONE|DICT|INTERRES
    41   19   21 2    
    42   20   84 1    
    43   20   85 1    
    44   22   23 am   BACKBONE|DICT|INTERRES
    45   22   86 1    
    46   23   24 2    
    47   23   25 1    
    48   25   26 1    
    49   25   27 1    
    50   25   87 1    
    51   26   88 1    
    52   26   89 1    
    53   26   90 1    
    54   27   28 am   BACKBONE|DICT|INTERRES
    55   27   91 1    
    56   28   29 2    
    57   28   30 1    
    58   30   31 1    
    59   30   32 1    
    60   30   92 1    
    61   31   93 1    
    62   31   94 1    
    63   31   95 1    
    64   32   33 am   BACKBONE|DICT|INTERRES
    65   32   96 1    
    66   33   34 2    
    67   33   35 1    
    68   35   36 1    
    69   35   37 1    
    70   35   97 1    
    71   36   98 1    
    72   36   99 1    
    73   36  100 1    
    74   37   38 am   BACKBONE|DICT|INTERRES
    75   37  101 1    
    76   38   39 2    
    77   38   40 1    
    78   40   41 1    
    79   40   42 1    
    80   40  102 1    
    81   41  103 1    
    82   41  104 1    
    83   41  105 1    
    84   42   43 am   BACKBONE|DICT|INTERRES
    85   42  106 1    
    86   43   44 2    
    87   43   45 1    
    88   45   46 1    
    89   45   49 1    
    90   45  107 1    
    91   46   47 1    
    92   46  108 1    
    93   46  109 1    
    94   47   48 1    
    95   48  110 1    
    96   48  111 1    
    97   49   50 am   BACKBONE|DICT|INTERRES
    98   49  112 1    
    99   50   51 2    
   100   50   52 1    
   101   52   53 1    
   102   52   54 1    
   103   52  113 1    
   104   53  114 1    
   105   53  115 1    
   106   53  116 1    
   107   54   55 am   BACKBONE|DICT|INTERRES
   108   54  117 1    
   109   55   56 2    
   110   55   57 1    
   111   57   58 1    
   112   57   59 1    
   113   57  118 1    
   114   58  119 1    
   115   58  120 1    
   116   58  121 1    
   117   59   60 am   BACKBONE|DICT|INTERRES
   118   59  122 1    
   119   60   61 2    
   120   60   62 1    
   121   62   63 1    
   122   62   64 1    
   123   62  123 1    
   124   63  124 1    
   125   63  125 1    
   126   63  126 1    
   127   64   65 am   BACKBONE|DICT|INTERRES
   128   64  127 1    
   129   65   66 2    
@<TRIPOS>SUBSTRUCTURE
     1 UNK         1 GROUP             0       ****    0 ROOT    
