@<TRIPOS>MOLECULE
3R134
127   129    1
SMALL
USER_CHARGES


@<TRIPOS>ATOM
      1 CA         36.0640  -46.5658  -52.3951 C.3       0 UNK        -0.1968 
      2 C          34.6970  -46.4048  -53.0419 C.2       0 UNK         0.4852 
      3 O          34.2580  -47.2950  -53.7680 O.2       0 UNK        -0.5359 
      4 N          34.0195  -45.2782  -52.7843 N.am      1 UNK        -0.4300 
      5 CA         32.6884  -44.9569  -53.3164 C.3       1 UNK         0.0863 
      6 C6         32.2411  -43.5199  -52.9448 C.3       11 UNK        -0.0953 
      7 S7         33.4662  -42.2659  -53.4620 S.3       11 UNK        -0.2369 
      8 C8         32.6694  -41.4924  -54.9063 C.3       11 UNK         0.0226 
      9 C9         32.2477  -42.5066  -55.9606 C.ar      11 UNK        -0.0699 
     10 C10        33.2022  -43.2935  -56.6163 C.ar      11 UNK        -0.0804 
     11 C11        32.8058  -44.2431  -57.5633 C.ar      11 UNK        -0.0871 
     12 C12        31.4508  -44.3684  -57.8823 C.ar      11 UNK        -0.1008 
     13 C13        30.4892  -43.6060  -57.2183 C.ar      11 UNK        -0.0735 
     14 C14        30.8925  -42.6691  -56.2646 C.ar      11 UNK        -0.0945 
     15 C15        29.0164  -43.8231  -57.5209 C.3       11 UNK         0.0169 
     16 S16        28.4126  -45.3741  -56.7805 S.3       11 UNK        -0.2669 
     17 C17        28.2690  -44.9267  -55.0090 C.3       11 UNK        -0.0850 
     18 CA         26.8188  -44.6100  -54.5594 C.3       10 UNK         0.0855 
     19 C          26.3798  -43.1848  -55.0116 C.2       10 UNK         0.5543 
     20 N          25.4127  -43.0259  -55.9081 N.am      10 UNK        -0.7343 
     21 O          26.9345  -42.1995  -54.5319 O.2       10 UNK        -0.5027 
     22 N          25.9225  -45.7049  -54.9428 N.am      10 UNK        -0.4495 
     23 C          24.6504  -45.8801  -54.5723 C.2       10 UNK         0.4903 
     24 O          24.0918  -45.2298  -53.6880 O.2       10 UNK        -0.4860 
     25 CA         23.8793  -46.9560  -55.3660 C.3       9 UNK         0.0227 
     26 CB         22.3512  -46.7416  -55.3411 C.3       9 UNK        -0.1964 
     27 N          24.3776  -47.0927  -56.7459 N.am      9 UNK        -0.4231 
     28 C          24.4019  -46.1429  -57.6968 C.2       9 UNK         0.5014 
     29 O          23.9022  -45.0263  -57.5482 O.2       9 UNK        -0.5270 
     30 CA         25.1627  -46.4567  -59.0009 C.3       8 UNK         0.0284 
     31 CB         25.7846  -45.1914  -59.6221 C.3       8 UNK        -0.1977 
     32 N          26.2184  -47.4575  -58.8054 N.am      8 UNK        -0.4342 
     33 C          26.0706  -48.7687  -59.0294 C.2       8 UNK         0.5039 
     34 O          25.0196  -49.2785  -59.4195 O.2       8 UNK        -0.5547 
     35 CA         27.2844  -49.6771  -58.7663 C.3       7 UNK         0.0281 
     36 CB         28.1491  -49.7834  -60.0330 C.3       7 UNK        -0.1963 
     37 N          28.1467  -49.3212  -57.6320 N.am      7 UNK        -0.4444 
     38 C          27.7756  -49.0804  -56.3688 C.2       7 UNK         0.5104 
     39 O          26.6051  -48.9145  -56.0254 O.2       7 UNK        -0.5100 
     40 CA         28.8720  -49.0409  -55.2796 C.3       6 UNK         0.0396 
     41 CB         28.8696  -50.3653  -54.4944 C.3       6 UNK        -0.1801 
     42 N          30.2479  -48.7028  -55.6897 N.am      6 UNK        -0.4747 
     43 C          31.0635  -49.3397  -56.5482 C.2       6 UNK         0.5012 
     44 O          30.7158  -50.2979  -57.2381 O.2       6 UNK        -0.5003 
     45 CA         32.5120  -48.8232  -56.6563 C.3       5 UNK         0.0782 
     46 C46        32.5565  -47.2872  -56.8302 C.3       11 UNK        -0.0868 
     47 S47        34.2168  -46.6130  -57.1735 S.3       11 UNK        -0.2515 
     48 C48        33.8270  -45.1650  -58.2185 C.3       11 UNK         0.0199 
     49 N          33.2828  -49.3163  -55.5104 N.am      5 UNK        -0.4607 
     50 C          33.7477  -50.5705  -55.4164 C.2       4 UNK         0.5031 
     51 O          33.7011  -51.3859  -56.3385 O.2       4 UNK        -0.5119 
     52 CA         34.3359  -51.0165  -54.0685 C.3       4 UNK         0.0263 
     53 CB         35.7177  -50.4027  -53.7920 C.3       4 UNK        -0.1967 
     54 N          33.4182  -50.7762  -52.9503 N.am      4 UNK        -0.4237 
     55 C          32.3407  -51.5331  -52.6978 C.2       3 UNK         0.4908 
     56 O          31.9892  -52.4746  -53.4095 O.2       3 UNK        -0.5102 
     57 CA         31.5234  -51.2338  -51.4271 C.3       3 UNK         0.0241 
     58 CB         32.2819  -51.6730  -50.1579 C.3       3 UNK        -0.1971 
     59 N          31.0233  -49.8577  -51.3128 N.am      3 UNK        -0.4139 
     60 C          31.7245  -48.7289  -51.1570 C.2       2 UNK         0.5016 
     61 O          32.9555  -48.6813  -51.0858 O.2       2 UNK        -0.5319 
     62 CA         30.8996  -47.4402  -51.0106 C.3       2 UNK         0.0286 
     63 CB         30.6077  -47.1546  -49.5287 C.3       2 UNK        -0.1963 
     64 N          31.6326  -46.3118  -51.5766 N.am      2 UNK        -0.4790 
     65 C          31.6413  -46.0007  -52.8789 C.2       1 UNK         0.5024 
     66 O          30.9177  -46.5408  -53.7166 O.2       1 UNK        -0.4888 
     67 H67        36.8210  -46.7398  -53.1592 H         1 UNK         0.0892 
     68 H68        36.0559  -47.4216  -51.7203 H         1 UNK         0.0892 
     69 H69        36.3526  -45.6837  -51.8242 H         1 UNK         0.0892 
     70 H70        34.4374  -44.5671  -52.2018 H         1 UNK         0.3107 
     71 H71        32.7585  -45.0176  -54.4038 H         1 UNK         0.0773 
     72 H72        32.1062  -43.4256  -51.8658 H         1 UNK         0.0680 
     73 H73        31.2718  -43.2900  -53.3906 H         1 UNK         0.0680 
     74 H74        31.8135  -40.9098  -54.5617 H         1 UNK         0.0650 
     75 H75        33.3647  -40.7809  -55.3535 H         1 UNK         0.0650 
     76 H76        34.2486  -43.1900  -56.3630 H         1 UNK         0.1397 
     77 H77        31.1324  -45.0935  -58.6184 H         1 UNK         0.1363 
     78 H78        30.1486  -42.0764  -55.7496 H         1 UNK         0.1355 
     79 H79        28.8757  -43.8710  -58.6016 H         1 UNK         0.0707 
     80 H80        28.4145  -42.9830  -57.1722 H         1 UNK         0.0707 
     81 H81        28.6235  -45.7815  -54.4353 H         1 UNK         0.1034 
     82 H82        28.9524  -44.1141  -54.7591 H         1 UNK         0.1034 
     83 H83        26.8167  -44.5807  -53.4684 H         1 UNK         0.0482 
     84 H84        24.9427  -43.8209  -56.3268 H         1 UNK         0.3460 
     85 H85        25.1465  -42.0931  -56.1788 H         1 UNK         0.3460 
     86 H86        26.2789  -46.3049  -55.6723 H         1 UNK         0.2989 
     87 H87        24.0890  -47.9061  -54.8726 H         1 UNK         0.0559 
     88 H88        21.9681  -46.7828  -54.3208 H         1 UNK         0.0848 
     89 H89        21.8328  -47.5118  -55.9118 H         1 UNK         0.0848 
     90 H90        22.0697  -45.7718  -55.7525 H         1 UNK         0.0848 
     91 H91        24.8787  -47.9547  -56.9323 H         1 UNK         0.3144 
     92 H92        24.4232  -46.8355  -59.7093 H         1 UNK         0.0727 
     93 H93        26.3503  -45.4262  -60.5238 H         1 UNK         0.0790 
     94 H94        26.4534  -44.6854  -58.9264 H         1 UNK         0.0790 
     95 H95        25.0125  -44.4751  -59.9057 H         1 UNK         0.0790 
     96 H96        27.1060  -47.1257  -58.4517 H         1 UNK         0.3215 
     97 H97        26.8879  -50.6707  -58.5477 H         1 UNK         0.0863 
     98 H98        28.9335  -50.5318  -59.9171 H         1 UNK         0.0808 
     99 H99        28.6258  -48.8327  -60.2755 H         1 UNK         0.0808 
    100 H100       27.5487  -50.0775  -60.8952 H         1 UNK         0.0808 
    101 H101       29.1360  -49.5216  -57.7527 H         1 UNK         0.3118 
    102 H102       28.5778  -48.2505  -54.5878 H         1 UNK         0.0546 
    103 H103       27.8812  -50.5781  -54.0846 H         1 UNK         0.0828 
    104 H104       29.5660  -50.3306  -53.6593 H         1 UNK         0.0828 
    105 H105       29.1491  -51.2107  -55.1242 H         1 UNK         0.0828 
    106 H106       30.6328  -47.9084  -55.1851 H         1 UNK         0.3005 
    107 H107       32.9343  -49.2578  -57.5657 H         1 UNK         0.1257 
    108 H108       32.1689  -46.7731  -55.9521 H         1 UNK         0.0775 
    109 H109       31.9036  -47.0182  -57.6603 H         1 UNK         0.0775 
    110 H110       34.7470  -44.6143  -58.4198 H         1 UNK         0.0840 
    111 H111       33.4621  -45.5102  -59.1872 H         1 UNK         0.0840 
    112 H112       33.4524  -48.6566  -54.7524 H         1 UNK         0.2987 
    113 H113       34.4902  -52.0959  -54.1378 H         1 UNK         0.0785 
    114 H114       35.6720  -49.3282  -53.6371 H         1 UNK         0.0798 
    115 H115       36.3956  -50.5806  -54.6277 H         1 UNK         0.0798 
    116 H116       36.1736  -50.8449  -52.9062 H         1 UNK         0.0798 
    117 H117       33.5940  -49.9780  -52.3438 H         1 UNK         0.3079 
    118 H118       30.6282  -51.8553  -51.4887 H         1 UNK         0.0794 
    119 H119       33.1998  -51.1040  -50.0082 H         1 UNK         0.0786 
    120 H120       32.5619  -52.7256  -50.2180 H         1 UNK         0.0786 
    121 H121       31.6654  -51.5528  -49.2671 H         1 UNK         0.0786 
    122 H122       30.0169  -49.7760  -51.3511 H         1 UNK         0.3032 
    123 H123       29.9507  -47.5563  -51.5403 H         1 UNK         0.1094 
    124 H124       30.0366  -47.9675  -49.0781 H         1 UNK         0.0794 
    125 H125       30.0217  -46.2431  -49.4086 H         1 UNK         0.0794 
    126 H126       31.5256  -47.0422  -48.9500 H         1 UNK         0.0794 
    127 H127       32.3238  -45.8817  -50.9795 H         1 UNK         0.3016 
@<TRIPOS>BOND
     1    1    2 1    
     2    1   67 1    
     3    1   68 1    
     4    1   69 1    
     5    2    3 2    
     6    2    4 am   BACKBONE|DICT|INTERRES
     7    4    5 1    
     8    4   70 1    
     9    5    6 1    
    10    5   65 1    
    11    5   71 1    
    12    6    7 1    
    13    6   72 1    
    14    6   73 1    
    15    7    8 1    
    16    8    9 1    
    17    8   74 1    
    18    8   75 1    
    19    9   10 ar   
    20    9   14 ar   
    21   10   11 ar   
    22   10   76 1    
    23   11   12 ar   
    24   11   48 1    
    25   12   13 ar   
    26   12   77 1    
    27   13   14 ar   
    28   13   15 1    
    29   14   78 1    
    30   15   16 1    
    31   15   79 1    
    32   15   80 1    
    33   16   17 1    
    34   17   18 1    
    35   17   81 1    
    36   17   82 1    
    37   18   19 1    
    38   18   22 1    
    39   18   83 1    
    40   19   20 am   BACKBONE|DICT|INTERRES
    41   19   21 2    
    42   20   84 1    
    43   20   85 1    
    44   22   23 am   BACKBONE|DICT|INTERRES
    45   22   86 1    
    46   23   24 2    
    47   23   25 1    
    48   25   26 1    
    49   25   27 1    
    50   25   87 1    
    51   26   88 1    
    52   26   89 1    
    53   26   90 1    
    54   27   28 am   BACKBONE|DICT|INTERRES
    55   27   91 1    
    56   28   29 2    
    57   28   30 1    
    58   30   31 1    
    59   30   32 1    
    60   30   92 1    
    61   31   93 1    
    62   31   94 1    
    63   31   95 1    
    64   32   33 am   BACKBONE|DICT|INTERRES
    65   32   96 1    
    66   33   34 2    
    67   33   35 1    
    68   35   36 1    
    69   35   37 1    
    70   35   97 1    
    71   36   98 1    
    72   36   99 1    
    73   36  100 1    
    74   37   38 am   BACKBONE|DICT|INTERRES
    75   37  101 1    
    76   38   39 2    
    77   38   40 1    
    78   40   41 1    
    79   40   42 1    
    80   40  102 1    
    81   41  103 1    
    82   41  104 1    
    83   41  105 1    
    84   42   43 am   BACKBONE|DICT|INTERRES
    85   42  106 1    
    86   43   44 2    
    87   43   45 1    
    88   45   46 1    
    89   45   49 1    
    90   45  107 1    
    91   46   47 1    
    92   46  108 1    
    93   46  109 1    
    94   47   48 1    
    95   48  110 1    
    96   48  111 1    
    97   49   50 am   BACKBONE|DICT|INTERRES
    98   49  112 1    
    99   50   51 2    
   100   50   52 1    
   101   52   53 1    
   102   52   54 1    
   103   52  113 1    
   104   53  114 1    
   105   53  115 1    
   106   53  116 1    
   107   54   55 am   BACKBONE|DICT|INTERRES
   108   54  117 1    
   109   55   56 2    
   110   55   57 1    
   111   57   58 1    
   112   57   59 1    
   113   57  118 1    
   114   58  119 1    
   115   58  120 1    
   116   58  121 1    
   117   59   60 am   BACKBONE|DICT|INTERRES
   118   59  122 1    
   119   60   61 2    
   120   60   62 1    
   121   62   63 1    
   122   62   64 1    
   123   62  123 1    
   124   63  124 1    
   125   63  125 1    
   126   63  126 1    
   127   64   65 am   BACKBONE|DICT|INTERRES
   128   64  127 1    
   129   65   66 2    
@<TRIPOS>SUBSTRUCTURE
     1 UNK         1 GROUP             0       ****    0 ROOT    
