@<TRIPOS>MOLECULE
3R134
127   129    1
SMALL
USER_CHARGES


@<TRIPOS>ATOM
      1 CA         38.9363  -42.0282  -55.8841 C.3       0 UNK        -0.1968 
      2 C          37.6996  -42.8998  -56.0487 C.2       0 UNK         0.4852 
      3 O          37.4065  -43.3403  -57.1616 O.2       0 UNK        -0.5359 
      4 N          36.9695  -43.1449  -54.9527 N.am      1 UNK        -0.4300 
      5 CA         35.7912  -44.0143  -54.9095 C.3       1 UNK         0.0863 
      6 C6         34.9724  -43.7708  -53.6168 C.3       11 UNK        -0.0953 
      7 S7         33.3001  -44.4989  -53.6709 S.3       11 UNK        -0.2369 
      8 C8         32.4837  -43.5145  -52.3804 C.3       11 UNK         0.0226 
      9 C9         31.1028  -44.0623  -52.0587 C.ar      11 UNK        -0.0699 
     10 C10        30.9442  -45.0113  -51.0448 C.ar      11 UNK        -0.0804 
     11 C11        29.6754  -45.5058  -50.7286 C.ar      11 UNK        -0.0871 
     12 C12        28.5612  -45.0459  -51.4345 C.ar      11 UNK        -0.1008 
     13 C13        28.7104  -44.1136  -52.4645 C.ar      11 UNK        -0.0735 
     14 C14        29.9825  -43.6165  -52.7665 C.ar      11 UNK        -0.0945 
     15 C15        27.4917  -43.6586  -53.2513 C.3       11 UNK         0.0169 
     16 S16        27.0068  -44.9095  -54.4806 S.3       11 UNK        -0.2669 
     17 C17        28.2778  -44.6743  -55.7712 C.3       11 UNK        -0.0850 
     18 CA         27.6572  -44.2612  -57.1306 C.3       10 UNK         0.0855 
     19 C          28.7652  -43.8460  -58.1448 C.2       10 UNK         0.5543 
     20 N          28.9492  -44.5315  -59.2676 N.am      10 UNK        -0.7343 
     21 O          29.4722  -42.8705  -57.9057 O.2       10 UNK        -0.5027 
     22 N          26.7372  -45.2963  -57.6201 N.am      10 UNK        -0.4495 
     23 C          25.8004  -45.1329  -58.5615 C.2       10 UNK         0.4903 
     24 O          25.5063  -44.0434  -59.0557 O.2       10 UNK        -0.4860 
     25 CA         25.0913  -46.4199  -59.0355 C.3       9 UNK         0.0227 
     26 CB         24.4973  -46.2857  -60.4535 C.3       9 UNK        -0.1964 
     27 N          25.9431  -47.6171  -58.9349 N.am      9 UNK        -0.4231 
     28 C          27.1333  -47.8115  -59.5299 C.2       9 UNK         0.5014 
     29 O          27.6385  -46.9958  -60.3030 O.2       9 UNK        -0.5270 
     30 CA         27.9293  -49.0820  -59.1716 C.3       8 UNK         0.0284 
     31 CB         29.4138  -48.7599  -58.9276 C.3       8 UNK        -0.1977 
     32 N          27.3965  -49.7831  -57.9984 N.am      8 UNK        -0.4342 
     33 C          26.4991  -50.7762  -58.0567 C.2       8 UNK         0.5039 
     34 O          26.0613  -51.2450  -59.1079 O.2       8 UNK        -0.5547 
     35 CA         25.9661  -51.3132  -56.7179 C.3       7 UNK         0.0281 
     36 CB         26.9207  -52.3727  -56.1439 C.3       7 UNK        -0.1963 
     37 N          25.7347  -50.2755  -55.7093 N.am      7 UNK        -0.4444 
     38 C          24.9411  -49.2038  -55.8289 C.2       7 UNK         0.5104 
     39 O          24.3103  -48.9399  -56.8519 O.2       7 UNK        -0.5100 
     40 CA         24.8498  -48.2372  -54.6301 C.3       6 UNK         0.0396 
     41 CB         23.6844  -48.6216  -53.6992 C.3       6 UNK        -0.1801 
     42 N          26.1034  -48.0539  -53.8810 N.am      6 UNK        -0.4747 
     43 C          26.7839  -48.9508  -53.1531 C.2       6 UNK         0.5012 
     44 O          26.4118  -50.1119  -52.9692 O.2       6 UNK        -0.5003 
     45 CA         28.1444  -48.5035  -52.5880 C.3       5 UNK         0.0782 
     46 C46        28.1330  -48.5843  -51.0381 C.3       11 UNK        -0.0868 
     47 S47        29.7477  -48.2243  -50.2609 S.3       11 UNK        -0.2515 
     48 C48        29.5130  -46.5371  -49.6246 C.3       11 UNK         0.0199 
     49 N          29.2418  -49.2832  -53.1674 N.am      5 UNK        -0.4607 
     50 C          29.5124  -49.4857  -54.4642 C.2       4 UNK         0.5031 
     51 O          28.8165  -49.0823  -55.4009 O.2       4 UNK        -0.5119 
     52 CA         30.8346  -50.2205  -54.7402 C.3       4 UNK         0.0263 
     53 CB         31.0574  -50.5242  -56.2311 C.3       4 UNK        -0.1967 
     54 N          31.9488  -49.4063  -54.2557 N.am      4 UNK        -0.4237 
     55 C          32.4590  -49.4374  -53.0173 C.2       3 UNK         0.4908 
     56 O          32.0787  -50.2280  -52.1524 O.2       3 UNK        -0.5102 
     57 CA         33.5329  -48.3823  -52.6780 C.3       3 UNK         0.0241 
     58 CB         34.5316  -48.8675  -51.6064 C.3       3 UNK        -0.1971 
     59 N          34.2320  -47.8475  -53.8559 N.am      3 UNK        -0.4139 
     60 C          35.0269  -48.5103  -54.7130 C.2       2 UNK         0.5016 
     61 O          35.3198  -49.7009  -54.6023 O.2       2 UNK        -0.5319 
     62 CA         35.5587  -47.7232  -55.9268 C.3       2 UNK         0.0286 
     63 CB         34.8395  -48.1738  -57.2101 C.3       2 UNK        -0.1963 
     64 N          35.4086  -46.2707  -55.7867 N.am      2 UNK        -0.4790 
     65 C          36.2063  -45.4947  -55.0412 C.2       1 UNK         0.5024 
     66 O          37.1979  -45.9114  -54.4374 O.2       1 UNK        -0.4888 
     67 H67        38.8565  -41.1412  -56.5120 H         1 UNK         0.0892 
     68 H68        39.0720  -41.7024  -54.8529 H         1 UNK         0.0892 
     69 H69        39.8265  -42.5802  -56.1848 H         1 UNK         0.0892 
     70 H70        37.2790  -42.7827  -54.0621 H         1 UNK         0.3107 
     71 H71        35.1647  -43.7501  -55.7647 H         1 UNK         0.0773 
     72 H72        34.8575  -42.6968  -53.4598 H         1 UNK         0.0680 
     73 H73        35.4974  -44.1501  -52.7376 H         1 UNK         0.0680 
     74 H74        32.4103  -42.4765  -52.7086 H         1 UNK         0.0650 
     75 H75        33.1019  -43.5121  -51.4812 H         1 UNK         0.0650 
     76 H76        31.8096  -45.3662  -50.5016 H         1 UNK         0.1397 
     77 H77        27.5772  -45.4264  -51.1968 H         1 UNK         0.1363 
     78 H78        30.1051  -42.8876  -53.5558 H         1 UNK         0.1355 
     79 H79        27.6744  -42.7025  -53.7445 H         1 UNK         0.0707 
     80 H80        26.6578  -43.4945  -52.5671 H         1 UNK         0.0707 
     81 H81        28.9942  -43.9220  -55.4389 H         1 UNK         0.1034 
     82 H82        28.8464  -45.6009  -55.8724 H         1 UNK         0.1034 
     83 H83        27.0651  -43.3599  -56.9602 H         1 UNK         0.0482 
     84 H84        28.3739  -45.3337  -59.5016 H         1 UNK         0.3460 
     85 H85        29.6702  -44.2361  -59.9058 H         1 UNK         0.3460 
     86 H86        26.9007  -46.2274  -57.2706 H         1 UNK         0.2989 
     87 H87        24.2619  -46.5780  -58.3450 H         1 UNK         0.0559 
     88 H88        25.2641  -46.0579  -61.1946 H         1 UNK         0.0848 
     89 H89        23.7588  -45.4841  -60.4947 H         1 UNK         0.0848 
     90 H90        23.9947  -47.2024  -60.7614 H         1 UNK         0.0848 
     91 H91        25.5884  -48.3388  -58.3148 H         1 UNK         0.3144 
     92 H92        27.8770  -49.7339  -60.0460 H         1 UNK         0.0727 
     93 H93        29.5537  -48.1422  -58.0395 H         1 UNK         0.0790 
     94 H94        29.8532  -48.2254  -59.7709 H         1 UNK         0.0790 
     95 H95        29.9909  -49.6753  -58.8052 H         1 UNK         0.0790 
     96 H96        27.7282  -49.4757  -57.0869 H         1 UNK         0.3215 
     97 H97        25.0041  -51.7897  -56.9172 H         1 UNK         0.0863 
     98 H98        26.5057  -52.8371  -55.2491 H         1 UNK         0.0808 
     99 H99        27.8881  -51.9439  -55.8802 H         1 UNK         0.0808 
    100 H100       27.1019  -53.1691  -56.8671 H         1 UNK         0.0808 
    101 H101       26.1821  -50.4033  -54.8054 H         1 UNK         0.3118 
    102 H102       24.6203  -47.2551  -55.0471 H         1 UNK         0.0546 
    103 H103       23.8202  -49.6087  -53.2566 H         1 UNK         0.0828 
    104 H104       22.7416  -48.6423  -54.2475 H         1 UNK         0.0828 
    105 H105       23.5709  -47.9024  -52.8882 H         1 UNK         0.0828 
    106 H106       26.5205  -47.1382  -54.0029 H         1 UNK         0.3005 
    107 H107       28.3193  -47.4657  -52.8770 H         1 UNK         0.1257 
    108 H108       27.8482  -49.5874  -50.7137 H         1 UNK         0.0775 
    109 H109       27.3745  -47.9152  -50.6282 H         1 UNK         0.0775 
    110 H110       28.5375  -46.4455  -49.1446 H         1 UNK         0.0840 
    111 H111       30.2503  -46.3538  -48.8415 H         1 UNK         0.0840 
    112 H112       29.9054  -49.6450  -52.4935 H         1 UNK         0.2987 
    113 H113       30.8025  -51.1724  -54.2055 H         1 UNK         0.0785 
    114 H114       30.2120  -51.0668  -56.6561 H         1 UNK         0.0798 
    115 H115       31.9448  -51.1400  -56.3779 H         1 UNK         0.0798 
    116 H116       31.1915  -49.6090  -56.8067 H         1 UNK         0.0798 
    117 H117       32.2923  -48.6996  -54.8885 H         1 UNK         0.3079 
    118 H118       32.9861  -47.5397  -52.2510 H         1 UNK         0.0794 
    119 H119       34.0179  -49.1133  -50.6761 H         1 UNK         0.0786 
    120 H120       35.2683  -48.0984  -51.3743 H         1 UNK         0.0786 
    121 H121       35.0676  -49.7615  -51.9263 H         1 UNK         0.0786 
    122 H122       34.0648  -46.8681  -54.0470 H         1 UNK         0.3032 
    123 H123       36.6207  -47.9606  -56.0259 H         1 UNK         0.1094 
    124 H124       33.7705  -47.9604  -57.1742 H         1 UNK         0.0794 
    125 H125       35.2517  -47.6792  -58.0899 H         1 UNK         0.0794 
    126 H126       34.9512  -49.2482  -57.3646 H         1 UNK         0.0794 
    127 H127       34.6193  -45.8480  -56.2559 H         1 UNK         0.3016 
@<TRIPOS>BOND
     1    1    2 1    
     2    1   67 1    
     3    1   68 1    
     4    1   69 1    
     5    2    3 2    
     6    2    4 am   BACKBONE|DICT|INTERRES
     7    4    5 1    
     8    4   70 1    
     9    5    6 1    
    10    5   65 1    
    11    5   71 1    
    12    6    7 1    
    13    6   72 1    
    14    6   73 1    
    15    7    8 1    
    16    8    9 1    
    17    8   74 1    
    18    8   75 1    
    19    9   10 ar   
    20    9   14 ar   
    21   10   11 ar   
    22   10   76 1    
    23   11   12 ar   
    24   11   48 1    
    25   12   13 ar   
    26   12   77 1    
    27   13   14 ar   
    28   13   15 1    
    29   14   78 1    
    30   15   16 1    
    31   15   79 1    
    32   15   80 1    
    33   16   17 1    
    34   17   18 1    
    35   17   81 1    
    36   17   82 1    
    37   18   19 1    
    38   18   22 1    
    39   18   83 1    
    40   19   20 am   BACKBONE|DICT|INTERRES
    41   19   21 2    
    42   20   84 1    
    43   20   85 1    
    44   22   23 am   BACKBONE|DICT|INTERRES
    45   22   86 1    
    46   23   24 2    
    47   23   25 1    
    48   25   26 1    
    49   25   27 1    
    50   25   87 1    
    51   26   88 1    
    52   26   89 1    
    53   26   90 1    
    54   27   28 am   BACKBONE|DICT|INTERRES
    55   27   91 1    
    56   28   29 2    
    57   28   30 1    
    58   30   31 1    
    59   30   32 1    
    60   30   92 1    
    61   31   93 1    
    62   31   94 1    
    63   31   95 1    
    64   32   33 am   BACKBONE|DICT|INTERRES
    65   32   96 1    
    66   33   34 2    
    67   33   35 1    
    68   35   36 1    
    69   35   37 1    
    70   35   97 1    
    71   36   98 1    
    72   36   99 1    
    73   36  100 1    
    74   37   38 am   BACKBONE|DICT|INTERRES
    75   37  101 1    
    76   38   39 2    
    77   38   40 1    
    78   40   41 1    
    79   40   42 1    
    80   40  102 1    
    81   41  103 1    
    82   41  104 1    
    83   41  105 1    
    84   42   43 am   BACKBONE|DICT|INTERRES
    85   42  106 1    
    86   43   44 2    
    87   43   45 1    
    88   45   46 1    
    89   45   49 1    
    90   45  107 1    
    91   46   47 1    
    92   46  108 1    
    93   46  109 1    
    94   47   48 1    
    95   48  110 1    
    96   48  111 1    
    97   49   50 am   BACKBONE|DICT|INTERRES
    98   49  112 1    
    99   50   51 2    
   100   50   52 1    
   101   52   53 1    
   102   52   54 1    
   103   52  113 1    
   104   53  114 1    
   105   53  115 1    
   106   53  116 1    
   107   54   55 am   BACKBONE|DICT|INTERRES
   108   54  117 1    
   109   55   56 2    
   110   55   57 1    
   111   57   58 1    
   112   57   59 1    
   113   57  118 1    
   114   58  119 1    
   115   58  120 1    
   116   58  121 1    
   117   59   60 am   BACKBONE|DICT|INTERRES
   118   59  122 1    
   119   60   61 2    
   120   60   62 1    
   121   62   63 1    
   122   62   64 1    
   123   62  123 1    
   124   63  124 1    
   125   63  125 1    
   126   63  126 1    
   127   64   65 am   BACKBONE|DICT|INTERRES
   128   64  127 1    
   129   65   66 2    
@<TRIPOS>SUBSTRUCTURE
     1 UNK         1 GROUP             0       ****    0 ROOT    
