@<TRIPOS>MOLECULE
3R134
127   129    1
SMALL
USER_CHARGES


@<TRIPOS>ATOM
      1 CA         36.7151  -46.7062  -55.0999 C.3       0 UNK        -0.1968 
      2 C          35.5243  -46.5372  -54.1694 C.2       0 UNK         0.4852 
      3 O          34.7355  -47.4719  -54.0147 O.2       0 UNK        -0.5359 
      4 N          35.3839  -45.3599  -53.5452 N.am      1 UNK        -0.4300 
      5 CA         34.2877  -45.0275  -52.6302 C.3       1 UNK         0.0863 
      6 C6         34.3169  -43.5495  -52.1695 C.3       11 UNK        -0.0953 
      7 S7         34.2162  -42.3666  -53.5546 S.3       11 UNK        -0.2369 
      8 C8         32.4437  -41.9463  -53.5617 C.3       11 UNK         0.0226 
      9 C9         31.6077  -43.0594  -54.1752 C.ar      11 UNK        -0.0699 
     10 C10        30.9673  -43.9990  -53.3621 C.ar      11 UNK        -0.0804 
     11 C11        30.2266  -45.0393  -53.9311 C.ar      11 UNK        -0.0871 
     12 C12        30.1026  -45.1142  -55.3205 C.ar      11 UNK        -0.1008 
     13 C13        30.7294  -44.1758  -56.1466 C.ar      11 UNK        -0.0735 
     14 C14        31.4836  -43.1530  -55.5643 C.ar      11 UNK        -0.0945 
     15 C15        30.6312  -44.2632  -57.6678 C.3       11 UNK         0.0169 
     16 S16        28.9768  -44.7165  -58.2900 S.3       11 UNK        -0.2669 
     17 C17        27.9223  -43.4099  -57.5679 C.3       11 UNK        -0.0850 
     18 CA         26.7795  -44.0041  -56.6922 C.3       10 UNK         0.0855 
     19 C          26.0279  -42.9249  -55.8516 C.2       10 UNK         0.5543 
     20 N          24.7353  -43.0759  -55.5821 N.am      10 UNK        -0.7343 
     21 O          26.6274  -41.9486  -55.4084 O.2       10 UNK        -0.5027 
     22 N          25.8901  -44.9092  -57.4422 N.am      10 UNK        -0.4495 
     23 C          25.0924  -44.5620  -58.4632 C.2       10 UNK         0.4903 
     24 O          25.0705  -43.4425  -58.9756 O.2       10 UNK        -0.4860 
     25 CA         24.1208  -45.6329  -58.9907 C.3       9 UNK         0.0227 
     26 CB         24.6460  -46.2329  -60.3045 C.3       9 UNK        -0.1964 
     27 N          23.8282  -46.7030  -58.0272 N.am      9 UNK        -0.4231 
     28 C          23.1737  -46.5196  -56.8677 C.2       9 UNK         0.5014 
     29 O          22.7929  -45.4153  -56.4742 O.2       9 UNK        -0.5270 
     30 CA         22.8872  -47.7515  -55.9877 C.3       8 UNK         0.0284 
     31 CB         21.4004  -48.1354  -56.0738 C.3       8 UNK        -0.1977 
     32 N          23.7005  -48.9266  -56.3079 N.am      8 UNK        -0.4342 
     33 C          25.0109  -49.0448  -56.0610 C.2       8 UNK         0.5039 
     34 O          25.6860  -48.1590  -55.5312 O.2       8 UNK        -0.5547 
     35 CA         25.6958  -50.3607  -56.4888 C.3       7 UNK         0.0281 
     36 CB         24.7835  -51.3365  -57.2683 C.3       7 UNK        -0.1963 
     37 N          26.9246  -50.0978  -57.2436 N.am      7 UNK        -0.4444 
     38 C          27.0493  -49.3557  -58.3526 C.2       7 UNK         0.5104 
     39 O          26.0910  -48.8658  -58.9527 O.2       7 UNK        -0.5100 
     40 CA         28.4897  -49.0970  -58.8455 C.3       6 UNK         0.0396 
     41 CB         28.5385  -48.0960  -60.0143 C.3       6 UNK        -0.1801 
     42 N          29.3605  -48.6170  -57.7631 N.am      6 UNK        -0.4747 
     43 C          29.9330  -49.4026  -56.8399 C.2       6 UNK         0.5012 
     44 O          29.7980  -50.6292  -56.8233 O.2       6 UNK        -0.5003 
     45 CA         30.6997  -48.7148  -55.6918 C.3       5 UNK         0.0782 
     46 C46        29.7410  -48.5301  -54.4871 C.3       11 UNK        -0.0868 
     47 S47        30.4980  -47.6550  -53.0765 S.3       11 UNK        -0.2515 
     48 C48        29.5697  -46.0867  -53.0461 C.3       11 UNK         0.0199 
     49 N          31.8887  -49.4928  -55.3285 N.am      5 UNK        -0.4607 
     50 C          32.9510  -49.6799  -56.1221 C.2       4 UNK         0.5031 
     51 O          33.0888  -49.1329  -57.2178 O.2       4 UNK        -0.5119 
     52 CA         34.0372  -50.6233  -55.5853 C.3       4 UNK         0.0263 
     53 CB         35.2747  -50.7108  -56.5010 C.3       4 UNK        -0.1967 
     54 N          34.4440  -50.1872  -54.2526 N.am      4 UNK        -0.4237 
     55 C          34.8165  -50.9933  -53.2515 C.2       3 UNK         0.4908 
     56 O          34.8190  -52.2225  -53.3289 O.2       3 UNK        -0.5102 
     57 CA         35.2597  -50.3282  -51.9409 C.3       3 UNK         0.0241 
     58 CB         36.7263  -49.8735  -52.0316 C.3       3 UNK        -0.1971 
     59 N          34.4131  -49.1821  -51.5991 N.am      3 UNK        -0.4139 
     60 C          33.7841  -49.0150  -50.4266 C.2       2 UNK         0.5016 
     61 O          33.8530  -49.8230  -49.4983 O.2       2 UNK        -0.5319 
     62 CA         32.9121  -47.7521  -50.2523 C.3       2 UNK         0.0286 
     63 CB         32.9733  -47.1816  -48.8187 C.3       2 UNK        -0.1963 
     64 N          33.1595  -46.7041  -51.2525 N.am      2 UNK        -0.4790 
     65 C          34.2730  -45.9747  -51.4146 C.2       1 UNK         0.5024 
     66 O          35.2644  -46.0419  -50.6854 O.2       1 UNK        -0.4888 
     67 H67        37.3537  -47.5164  -54.7498 H         1 UNK         0.0892 
     68 H68        36.3707  -46.9537  -56.1036 H         1 UNK         0.0892 
     69 H69        37.3170  -45.7997  -55.1607 H         1 UNK         0.0892 
     70 H70        36.0621  -44.6271  -53.6953 H         1 UNK         0.3107 
     71 H71        33.3690  -45.1895  -53.1949 H         1 UNK         0.0773 
     72 H72        33.5021  -43.3477  -51.4718 H         1 UNK         0.0680 
     73 H73        35.2377  -43.3415  -51.6211 H         1 UNK         0.0680 
     74 H74        32.3053  -41.0298  -54.1371 H         1 UNK         0.0650 
     75 H75        32.1088  -41.7196  -52.5484 H         1 UNK         0.0650 
     76 H76        31.0643  -43.9309  -52.2872 H         1 UNK         0.1397 
     77 H77        29.5176  -45.9079  -55.7599 H         1 UNK         0.1363 
     78 H78        31.9855  -42.4292  -56.1921 H         1 UNK         0.1355 
     79 H79        30.9163  -43.3136  -58.1235 H         1 UNK         0.0707 
     80 H80        31.3512  -45.0028  -58.0202 H         1 UNK         0.0707 
     81 H81        27.5193  -42.7967  -58.3745 H         1 UNK         0.1034 
     82 H82        28.5454  -42.7373  -56.9764 H         1 UNK         0.1034 
     83 H83        27.2516  -44.6361  -55.9396 H         1 UNK         0.0482 
     84 H84        24.2181  -43.8709  -55.9365 H         1 UNK         0.3460 
     85 H85        24.2639  -42.3775  -55.0296 H         1 UNK         0.3460 
     86 H86        25.8235  -45.8522  -57.0855 H         1 UNK         0.2989 
     87 H87        23.1756  -45.1314  -59.2090 H         1 UNK         0.0559 
     88 H88        25.6432  -46.6558  -60.1858 H         1 UNK         0.0848 
     89 H89        24.7156  -45.4667  -61.0777 H         1 UNK         0.0848 
     90 H90        23.9884  -47.0157  -60.6826 H         1 UNK         0.0848 
     91 H91        24.1638  -47.6293  -58.2605 H         1 UNK         0.3144 
     92 H92        23.1040  -47.4646  -54.9564 H         1 UNK         0.0727 
     93 H93        21.1595  -48.9502  -55.3907 H         1 UNK         0.0790 
     94 H94        21.1203  -48.4454  -57.0814 H         1 UNK         0.0790 
     95 H95        20.7628  -47.2920  -55.8042 H         1 UNK         0.0790 
     96 H96        23.2284  -49.6969  -56.7595 H         1 UNK         0.3215 
     97 H97        26.0004  -50.8557  -55.5655 H         1 UNK         0.0863 
     98 H98        24.4105  -50.9021  -58.1968 H         1 UNK         0.0808 
     99 H99        23.9247  -51.6445  -56.6704 H         1 UNK         0.0808 
    100 H100       25.3237  -52.2465  -57.5300 H         1 UNK         0.0808 
    101 H101       27.7850  -50.4489  -56.8361 H         1 UNK         0.3118 
    102 H102       28.8771  -50.0488  -59.2151 H         1 UNK         0.0546 
    103 H103       28.1069  -47.1337  -59.7397 H         1 UNK         0.0828 
    104 H104       27.9753  -48.4694  -60.8705 H         1 UNK         0.0828 
    105 H105       29.5607  -47.9234  -60.3509 H         1 UNK         0.0828 
    106 H106       29.4714  -47.6146  -57.7011 H         1 UNK         0.3005 
    107 H107       31.0434  -47.7376  -56.0367 H         1 UNK         0.1257 
    108 H108       29.4025  -49.5018  -54.1214 H         1 UNK         0.0775 
    109 H109       28.8342  -48.0050  -54.7936 H         1 UNK         0.0775 
    110 H110       28.5333  -46.2431  -53.3487 H         1 UNK         0.0840 
    111 H111       29.5266  -45.7337  -52.0145 H         1 UNK         0.0840 
    112 H112       31.8523  -49.9729  -54.4418 H         1 UNK         0.2987 
    113 H113       33.5823  -51.6144  -55.5261 H         1 UNK         0.0785 
    114 H114       36.0046  -51.4222  -56.1145 H         1 UNK         0.0798 
    115 H115       34.9989  -51.0429  -57.5027 H         1 UNK         0.0798 
    116 H116       35.7689  -49.7434  -56.5988 H         1 UNK         0.0798 
    117 H117       34.4887  -49.1736  -54.1293 H         1 UNK         0.3079 
    118 H118       35.1931  -51.0926  -51.1638 H         1 UNK         0.0794 
    119 H119       37.0717  -49.4670  -51.0809 H         1 UNK         0.0786 
    120 H120       36.8662  -49.1056  -52.7926 H         1 UNK         0.0786 
    121 H121       37.3803  -50.7091  -52.2847 H         1 UNK         0.0786 
    122 H122       34.3121  -48.4644  -52.3096 H         1 UNK         0.3032 
    123 H123       31.8874  -48.0878  -50.4183 H         1 UNK         0.1094 
    124 H124       33.9893  -46.9107  -48.5306 H         1 UNK         0.0794 
    125 H125       32.3465  -46.2958  -48.7165 H         1 UNK         0.0794 
    126 H126       32.6172  -47.9124  -48.0915 H         1 UNK         0.0794 
    127 H127       32.4230  -46.6014  -51.9403 H         1 UNK         0.3016 
@<TRIPOS>BOND
     1    1    2 1    
     2    1   67 1    
     3    1   68 1    
     4    1   69 1    
     5    2    3 2    
     6    2    4 am   BACKBONE|DICT|INTERRES
     7    4    5 1    
     8    4   70 1    
     9    5    6 1    
    10    5   65 1    
    11    5   71 1    
    12    6    7 1    
    13    6   72 1    
    14    6   73 1    
    15    7    8 1    
    16    8    9 1    
    17    8   74 1    
    18    8   75 1    
    19    9   10 ar   
    20    9   14 ar   
    21   10   11 ar   
    22   10   76 1    
    23   11   12 ar   
    24   11   48 1    
    25   12   13 ar   
    26   12   77 1    
    27   13   14 ar   
    28   13   15 1    
    29   14   78 1    
    30   15   16 1    
    31   15   79 1    
    32   15   80 1    
    33   16   17 1    
    34   17   18 1    
    35   17   81 1    
    36   17   82 1    
    37   18   19 1    
    38   18   22 1    
    39   18   83 1    
    40   19   20 am   BACKBONE|DICT|INTERRES
    41   19   21 2    
    42   20   84 1    
    43   20   85 1    
    44   22   23 am   BACKBONE|DICT|INTERRES
    45   22   86 1    
    46   23   24 2    
    47   23   25 1    
    48   25   26 1    
    49   25   27 1    
    50   25   87 1    
    51   26   88 1    
    52   26   89 1    
    53   26   90 1    
    54   27   28 am   BACKBONE|DICT|INTERRES
    55   27   91 1    
    56   28   29 2    
    57   28   30 1    
    58   30   31 1    
    59   30   32 1    
    60   30   92 1    
    61   31   93 1    
    62   31   94 1    
    63   31   95 1    
    64   32   33 am   BACKBONE|DICT|INTERRES
    65   32   96 1    
    66   33   34 2    
    67   33   35 1    
    68   35   36 1    
    69   35   37 1    
    70   35   97 1    
    71   36   98 1    
    72   36   99 1    
    73   36  100 1    
    74   37   38 am   BACKBONE|DICT|INTERRES
    75   37  101 1    
    76   38   39 2    
    77   38   40 1    
    78   40   41 1    
    79   40   42 1    
    80   40  102 1    
    81   41  103 1    
    82   41  104 1    
    83   41  105 1    
    84   42   43 am   BACKBONE|DICT|INTERRES
    85   42  106 1    
    86   43   44 2    
    87   43   45 1    
    88   45   46 1    
    89   45   49 1    
    90   45  107 1    
    91   46   47 1    
    92   46  108 1    
    93   46  109 1    
    94   47   48 1    
    95   48  110 1    
    96   48  111 1    
    97   49   50 am   BACKBONE|DICT|INTERRES
    98   49  112 1    
    99   50   51 2    
   100   50   52 1    
   101   52   53 1    
   102   52   54 1    
   103   52  113 1    
   104   53  114 1    
   105   53  115 1    
   106   53  116 1    
   107   54   55 am   BACKBONE|DICT|INTERRES
   108   54  117 1    
   109   55   56 2    
   110   55   57 1    
   111   57   58 1    
   112   57   59 1    
   113   57  118 1    
   114   58  119 1    
   115   58  120 1    
   116   58  121 1    
   117   59   60 am   BACKBONE|DICT|INTERRES
   118   59  122 1    
   119   60   61 2    
   120   60   62 1    
   121   62   63 1    
   122   62   64 1    
   123   62  123 1    
   124   63  124 1    
   125   63  125 1    
   126   63  126 1    
   127   64   65 am   BACKBONE|DICT|INTERRES
   128   64  127 1    
   129   65   66 2    
@<TRIPOS>SUBSTRUCTURE
     1 UNK         1 GROUP             0       ****    0 ROOT    
