@<TRIPOS>MOLECULE
3R134
127   129    1
SMALL
USER_CHARGES


@<TRIPOS>ATOM
      1 CA         32.7003  -48.3750  -48.8223 C.3       0 UNK        -0.1968 
      2 C          33.1041  -47.9499  -50.2256 C.2       0 UNK         0.4852 
      3 O          33.1630  -48.7926  -51.1218 O.2       0 UNK        -0.5359 
      4 N          33.3669  -46.6497  -50.4260 N.am      1 UNK        -0.4300 
      5 CA         33.7789  -46.0483  -51.7017 C.3       1 UNK         0.0863 
      6 C6         34.0842  -44.5373  -51.5412 C.3       11 UNK        -0.0953 
      7 S7         35.2067  -43.9010  -52.8285 S.3       11 UNK        -0.2369 
      8 C8         34.2980  -42.4465  -53.4461 C.3       11 UNK         0.0226 
      9 C9         33.2427  -42.8043  -54.4852 C.ar      11 UNK        -0.0699 
     10 C10        33.6358  -43.3001  -55.7308 C.ar      11 UNK        -0.0804 
     11 C11        32.6878  -43.5841  -56.7174 C.ar      11 UNK        -0.0871 
     12 C12        31.3335  -43.3596  -56.4514 C.ar      11 UNK        -0.1008 
     13 C13        30.9211  -42.8565  -55.2118 C.ar      11 UNK        -0.0735 
     14 C14        31.8839  -42.5914  -54.2297 C.ar      11 UNK        -0.0945 
     15 C15        29.4449  -42.6072  -54.9087 C.3       11 UNK         0.0169 
     16 S16        28.5460  -41.7719  -56.2582 S.3       11 UNK        -0.2669 
     17 C17        27.7062  -43.1736  -57.0845 C.3       11 UNK        -0.0850 
     18 CA         26.1834  -43.2317  -56.7510 C.3       10 UNK         0.0855 
     19 C          25.3091  -42.2780  -57.6276 C.2       10 UNK         0.5543 
     20 N          24.0426  -42.5935  -57.8730 N.am      10 UNK        -0.7343 
     21 O          25.7657  -41.2297  -58.0766 O.2       10 UNK        -0.5027 
     22 N          25.6683  -44.6109  -56.6648 N.am      10 UNK        -0.4495 
     23 C          25.6254  -45.5046  -57.6614 C.2       10 UNK         0.4903 
     24 O          26.1236  -45.3148  -58.7718 O.2       10 UNK        -0.4860 
     25 CA         24.8944  -46.8282  -57.3548 C.3       9 UNK         0.0227 
     26 CB         24.7194  -47.7079  -58.6065 C.3       9 UNK        -0.1964 
     27 N          25.5693  -47.5942  -56.3000 N.am      9 UNK        -0.4231 
     28 C          25.4639  -47.3313  -54.9873 C.2       9 UNK         0.5014 
     29 O          24.7549  -46.4238  -54.5465 O.2       9 UNK        -0.5270 
     30 CA         26.3167  -48.1421  -53.9931 C.3       8 UNK         0.0284 
     31 CB         25.5315  -48.5670  -52.7338 C.3       8 UNK        -0.1977 
     32 N          27.0681  -49.2510  -54.5886 N.am      8 UNK        -0.4342 
     33 C          26.6206  -50.4599  -54.9569 C.2       8 UNK         0.5039 
     34 O          25.4545  -50.8356  -54.8270 O.2       8 UNK        -0.5547 
     35 CA         27.6672  -51.3952  -55.6036 C.3       7 UNK         0.0281 
     36 CB         27.0206  -52.5774  -56.3574 C.3       7 UNK        -0.1963 
     37 N          28.6228  -50.6943  -56.4785 N.am      7 UNK        -0.4444 
     38 C          28.2987  -49.9225  -57.5272 C.2       7 UNK         0.5104 
     39 O          27.1361  -49.6562  -57.8293 O.2       7 UNK        -0.5100 
     40 CA         29.4394  -49.3433  -58.3736 C.3       6 UNK         0.0396 
     41 CB         28.9828  -48.1405  -59.2293 C.3       6 UNK        -0.1801 
     42 N          30.5991  -48.9589  -57.5668 N.am      6 UNK        -0.4747 
     43 C          31.8420  -48.8972  -58.0673 C.2       6 UNK         0.5012 
     44 O          32.1566  -49.3449  -59.1721 O.2       6 UNK        -0.5003 
     45 CA         32.9096  -48.1802  -57.2187 C.3       5 UNK         0.0782 
     46 C46        32.5841  -46.6840  -56.9937 C.3       11 UNK        -0.0868 
     47 S47        32.3320  -45.7008  -58.5119 S.3       11 UNK        -0.2515 
     48 C48        33.1382  -44.1262  -58.0702 C.3       11 UNK         0.0199 
     49 N          33.1275  -48.8558  -55.9420 N.am      5 UNK        -0.4607 
     50 C          33.6619  -50.0730  -55.7857 C.2       4 UNK         0.5031 
     51 O          34.0860  -50.7644  -56.7116 O.2       4 UNK        -0.5119 
     52 CA         33.7339  -50.6125  -54.3467 C.3       4 UNK         0.0263 
     53 CB         35.0155  -50.1250  -53.6521 C.3       4 UNK        -0.1967 
     54 N          32.5725  -50.2412  -53.5346 N.am      4 UNK        -0.4237 
     55 C          31.3130  -50.6295  -53.7813 C.2       3 UNK         0.4908 
     56 O          30.9836  -51.3709  -54.7079 O.2       3 UNK        -0.5102 
     57 CA         30.2269  -50.0460  -52.8679 C.3       3 UNK         0.0241 
     58 CB         30.2466  -50.6972  -51.4757 C.3       3 UNK        -0.1971 
     59 N          30.3426  -48.5924  -52.7540 N.am      3 UNK        -0.4139 
     60 C          30.0995  -47.7275  -53.7494 C.2       2 UNK         0.5016 
     61 O          29.6928  -48.0623  -54.8647 O.2       2 UNK        -0.5319 
     62 CA         30.3519  -46.2405  -53.4461 C.3       2 UNK         0.0286 
     63 CB         29.0964  -45.5936  -52.8407 C.3       2 UNK        -0.1963 
     64 N          31.4770  -46.0252  -52.5343 N.am      2 UNK        -0.4790 
     65 C          32.7554  -46.3068  -52.8238 C.2       1 UNK         0.5024 
     66 O          33.1232  -46.8084  -53.8846 O.2       1 UNK        -0.4888 
     67 H67        31.7041  -48.8160  -48.8362 H         1 UNK         0.0892 
     68 H68        33.3977  -49.1218  -48.4439 H         1 UNK         0.0892 
     69 H69        32.6913  -47.5359  -48.1270 H         1 UNK         0.0892 
     70 H70        33.2982  -46.0128  -49.6450 H         1 UNK         0.3107 
     71 H71        34.7027  -46.5565  -51.9875 H         1 UNK         0.0773 
     72 H72        33.1671  -43.9462  -51.5055 H         1 UNK         0.0680 
     73 H73        34.5861  -44.3590  -50.5889 H         1 UNK         0.0680 
     74 H74        35.0153  -41.7635  -53.9031 H         1 UNK         0.0650 
     75 H75        33.8597  -41.9035  -52.6073 H         1 UNK         0.0650 
     76 H76        34.6868  -43.4608  -55.9290 H         1 UNK         0.1397 
     77 H77        30.6023  -43.5783  -57.2166 H         1 UNK         0.1363 
     78 H78        31.5769  -42.2025  -53.2685 H         1 UNK         0.1355 
     79 H79        29.3461  -41.9889  -54.0152 H         1 UNK         0.0707 
     80 H80        28.9585  -43.5522  -54.6780 H         1 UNK         0.0707 
     81 H81        28.1960  -44.1017  -56.7869 H         1 UNK         0.1034 
     82 H82        27.8659  -43.1020  -58.1620 H         1 UNK         0.1034 
     83 H83        26.0587  -42.8533  -55.7358 H         1 UNK         0.0482 
     84 H84        23.6448  -43.4413  -57.5022 H         1 UNK         0.3460 
     85 H85        23.4791  -41.9730  -58.4328 H         1 UNK         0.3460 
     86 H86        25.2441  -44.8785  -55.7820 H         1 UNK         0.2989 
     87 H87        23.8917  -46.5699  -57.0076 H         1 UNK         0.0559 
     88 H88        24.1072  -47.2011  -59.3533 H         1 UNK         0.0848 
     89 H89        24.2267  -48.6505  -58.3674 H         1 UNK         0.0848 
     90 H90        25.6741  -47.9391  -59.0790 H         1 UNK         0.0848 
     91 H91        26.1736  -48.3488  -56.6119 H         1 UNK         0.3144 
     92 H92        27.0809  -47.4490  -53.6513 H         1 UNK         0.0727 
     93 H93        26.1614  -49.1261  -52.0418 H         1 UNK         0.0790 
     94 H94        24.6677  -49.1845  -52.9801 H         1 UNK         0.0790 
     95 H95        25.1572  -47.6950  -52.1961 H         1 UNK         0.0790 
     96 H96        28.0394  -49.0282  -54.7985 H         1 UNK         0.3215 
     97 H97        28.2474  -51.8176  -54.7828 H         1 UNK         0.0863 
     98 H98        27.7764  -53.2371  -56.7835 H         1 UNK         0.0808 
     99 H99        26.3765  -52.2359  -57.1685 H         1 UNK         0.0808 
    100 H100       26.4070  -53.1810  -55.6875 H         1 UNK         0.0808 
    101 H101       29.6035  -50.8390  -56.2595 H         1 UNK         0.3118 
    102 H102       29.7284  -50.1498  -59.0504 H         1 UNK         0.0546 
    103 H103       28.6436  -47.3122  -58.6057 H         1 UNK         0.0828 
    104 H104       29.7861  -47.7706  -59.8664 H         1 UNK         0.0828 
    105 H105       28.1572  -48.4131  -59.8878 H         1 UNK         0.0828 
    106 H106       30.4046  -48.5978  -56.6354 H         1 UNK         0.3005 
    107 H107       33.8473  -48.2333  -57.7767 H         1 UNK         0.1257 
    108 H108       33.4019  -46.2354  -56.4283 H         1 UNK         0.0775 
    109 H109       31.6946  -46.5719  -56.3727 H         1 UNK         0.0775 
    110 H110       34.2190  -44.2750  -58.0881 H         1 UNK         0.0840 
    111 H111       32.9175  -43.3869  -58.8413 H         1 UNK         0.0840 
    112 H112       32.8886  -48.3226  -55.1117 H         1 UNK         0.2987 
    113 H113       33.7654  -51.7026  -54.4029 H         1 UNK         0.0785 
    114 H114       35.1186  -50.5629  -52.6590 H         1 UNK         0.0798 
    115 H115       35.0237  -49.0398  -53.5394 H         1 UNK         0.0798 
    116 H116       35.9017  -50.4028  -54.2242 H         1 UNK         0.0798 
    117 H117       32.7526  -49.6436  -52.7286 H         1 UNK         0.3079 
    118 H118       29.2598  -50.2703  -53.3142 H         1 UNK         0.0794 
    119 H119       30.1108  -51.7768  -51.5521 H         1 UNK         0.0786 
    120 H120       29.4412  -50.3148  -50.8484 H         1 UNK         0.0786 
    121 H121       31.1877  -50.5271  -50.9532 H         1 UNK         0.0786 
    122 H122       30.7126  -48.2299  -51.8876 H         1 UNK         0.3032 
    123 H123       30.5849  -45.7396  -54.3883 H         1 UNK         0.1094 
    124 H124       29.2884  -44.5685  -52.5233 H         1 UNK         0.0794 
    125 H125       28.2893  -45.5539  -53.5719 H         1 UNK         0.0794 
    126 H126       28.7304  -46.1441  -51.9728 H         1 UNK         0.0794 
    127 H127       31.2639  -45.6347  -51.6277 H         1 UNK         0.3016 
@<TRIPOS>BOND
     1    1    2 1    
     2    1   67 1    
     3    1   68 1    
     4    1   69 1    
     5    2    3 2    
     6    2    4 am   BACKBONE|DICT|INTERRES
     7    4    5 1    
     8    4   70 1    
     9    5    6 1    
    10    5   65 1    
    11    5   71 1    
    12    6    7 1    
    13    6   72 1    
    14    6   73 1    
    15    7    8 1    
    16    8    9 1    
    17    8   74 1    
    18    8   75 1    
    19    9   10 ar   
    20    9   14 ar   
    21   10   11 ar   
    22   10   76 1    
    23   11   12 ar   
    24   11   48 1    
    25   12   13 ar   
    26   12   77 1    
    27   13   14 ar   
    28   13   15 1    
    29   14   78 1    
    30   15   16 1    
    31   15   79 1    
    32   15   80 1    
    33   16   17 1    
    34   17   18 1    
    35   17   81 1    
    36   17   82 1    
    37   18   19 1    
    38   18   22 1    
    39   18   83 1    
    40   19   20 am   BACKBONE|DICT|INTERRES
    41   19   21 2    
    42   20   84 1    
    43   20   85 1    
    44   22   23 am   BACKBONE|DICT|INTERRES
    45   22   86 1    
    46   23   24 2    
    47   23   25 1    
    48   25   26 1    
    49   25   27 1    
    50   25   87 1    
    51   26   88 1    
    52   26   89 1    
    53   26   90 1    
    54   27   28 am   BACKBONE|DICT|INTERRES
    55   27   91 1    
    56   28   29 2    
    57   28   30 1    
    58   30   31 1    
    59   30   32 1    
    60   30   92 1    
    61   31   93 1    
    62   31   94 1    
    63   31   95 1    
    64   32   33 am   BACKBONE|DICT|INTERRES
    65   32   96 1    
    66   33   34 2    
    67   33   35 1    
    68   35   36 1    
    69   35   37 1    
    70   35   97 1    
    71   36   98 1    
    72   36   99 1    
    73   36  100 1    
    74   37   38 am   BACKBONE|DICT|INTERRES
    75   37  101 1    
    76   38   39 2    
    77   38   40 1    
    78   40   41 1    
    79   40   42 1    
    80   40  102 1    
    81   41  103 1    
    82   41  104 1    
    83   41  105 1    
    84   42   43 am   BACKBONE|DICT|INTERRES
    85   42  106 1    
    86   43   44 2    
    87   43   45 1    
    88   45   46 1    
    89   45   49 1    
    90   45  107 1    
    91   46   47 1    
    92   46  108 1    
    93   46  109 1    
    94   47   48 1    
    95   48  110 1    
    96   48  111 1    
    97   49   50 am   BACKBONE|DICT|INTERRES
    98   49  112 1    
    99   50   51 2    
   100   50   52 1    
   101   52   53 1    
   102   52   54 1    
   103   52  113 1    
   104   53  114 1    
   105   53  115 1    
   106   53  116 1    
   107   54   55 am   BACKBONE|DICT|INTERRES
   108   54  117 1    
   109   55   56 2    
   110   55   57 1    
   111   57   58 1    
   112   57   59 1    
   113   57  118 1    
   114   58  119 1    
   115   58  120 1    
   116   58  121 1    
   117   59   60 am   BACKBONE|DICT|INTERRES
   118   59  122 1    
   119   60   61 2    
   120   60   62 1    
   121   62   63 1    
   122   62   64 1    
   123   62  123 1    
   124   63  124 1    
   125   63  125 1    
   126   63  126 1    
   127   64   65 am   BACKBONE|DICT|INTERRES
   128   64  127 1    
   129   65   66 2    
@<TRIPOS>SUBSTRUCTURE
     1 UNK         1 GROUP             0       ****    0 ROOT    
