@<TRIPOS>MOLECULE
3R134
127   129    1
SMALL
USER_CHARGES


@<TRIPOS>ATOM
      1 CA         38.0050  -48.1321  -53.3547 C.3       0 UNK        -0.1968 
      2 C          36.6135  -47.7779  -53.8561 C.2       0 UNK         0.4852 
      3 O          35.8301  -48.6749  -54.1746 O.2       0 UNK        -0.5359 
      4 N          36.2858  -46.4777  -53.9088 N.am      1 UNK        -0.4300 
      5 CA         35.0049  -45.9491  -54.4005 C.3       1 UNK         0.0863 
      6 C6         35.0547  -44.4205  -54.6395 C.3       11 UNK        -0.0953 
      7 S7         35.2035  -43.4300  -53.1118 S.3       11 UNK        -0.2369 
      8 C8         34.1842  -41.9741  -53.5149 C.3       11 UNK         0.0226 
      9 C9         32.7038  -42.3018  -53.6770 C.ar      11 UNK        -0.0699 
     10 C10        31.9348  -42.6646  -52.5667 C.ar      11 UNK        -0.0804 
     11 C11        30.5643  -42.9166  -52.6971 C.ar      11 UNK        -0.0871 
     12 C12        29.9643  -42.7917  -53.9556 C.ar      11 UNK        -0.1008 
     13 C13        30.7230  -42.4411  -55.0750 C.ar      11 UNK        -0.0735 
     14 C14        32.0922  -42.1995  -54.9309 C.ar      11 UNK        -0.0945 
     15 C15        30.0527  -42.2876  -56.4309 C.3       11 UNK         0.0169 
     16 S16        29.9961  -43.8619  -57.3407 S.3       11 UNK        -0.2669 
     17 C17        29.0720  -43.3373  -58.8260 C.3       11 UNK        -0.0850 
     18 CA         27.5908  -43.8185  -58.7996 C.3       10 UNK         0.0855 
     19 C          26.6749  -43.0380  -59.7951 C.2       10 UNK         0.5543 
     20 N          25.6208  -43.6412  -60.3314 N.am      10 UNK        -0.7343 
     21 O          26.8960  -41.8587  -60.0600 O.2       10 UNK        -0.5027 
     22 N          27.4669  -45.2883  -58.8673 N.am      10 UNK        -0.4495 
     23 C          27.7812  -46.0640  -59.9172 C.2       10 UNK         0.4903 
     24 O          28.2382  -45.6288  -60.9747 O.2       10 UNK        -0.4860 
     25 CA         27.5384  -47.5789  -59.7879 C.3       9 UNK         0.0227 
     26 CB         28.8276  -48.3704  -60.0716 C.3       9 UNK        -0.1964 
     27 N          27.0460  -47.9479  -58.4601 N.am      9 UNK        -0.4231 
     28 C          25.8838  -48.5455  -58.1881 C.2       9 UNK         0.5014 
     29 O          25.0381  -48.8443  -59.0349 O.2       9 UNK        -0.5270 
     30 CA         25.6154  -48.8445  -56.7062 C.3       8 UNK         0.0284 
     31 CB         24.6985  -47.7681  -56.1045 C.3       8 UNK        -0.1977 
     32 N          24.9637  -50.1465  -56.5876 N.am      8 UNK        -0.4342 
     33 C          25.5262  -51.3536  -56.4235 C.2       8 UNK         0.5039 
     34 O          24.8560  -52.3763  -56.5615 O.2       8 UNK        -0.5547 
     35 CA         27.0155  -51.5176  -56.0279 C.3       7 UNK         0.0281 
     36 CB         27.9723  -51.2621  -57.2070 C.3       7 UNK        -0.1963 
     37 N          27.4724  -50.7949  -54.8329 N.am      7 UNK        -0.4444 
     38 C          26.8680  -50.7749  -53.6355 C.2       7 UNK         0.5104 
     39 O          25.7961  -51.3285  -53.3889 O.2       7 UNK        -0.5100 
     40 CA         27.5986  -50.0492  -52.4921 C.3       6 UNK         0.0396 
     41 CB         28.5113  -51.0316  -51.7411 C.3       6 UNK        -0.1801 
     42 N          28.3906  -48.8938  -52.9182 N.am      6 UNK        -0.4747 
     43 C          27.8829  -47.7135  -53.3034 C.2       6 UNK         0.5012 
     44 O          26.6772  -47.4823  -53.3909 O.2       6 UNK        -0.5003 
     45 CA         28.9036  -46.6074  -53.6467 C.3       5 UNK         0.0782 
     46 C46        29.4965  -45.9699  -52.3625 C.3       11 UNK        -0.0868 
     47 S47        28.4842  -44.5819  -51.7547 S.3       11 UNK        -0.2515 
     48 C48        29.7469  -43.2933  -51.4623 C.3       11 UNK         0.0199 
     49 N          29.9552  -47.1064  -54.5328 N.am      5 UNK        -0.4607 
     50 C          29.7676  -47.5283  -55.7880 C.2       4 UNK         0.5031 
     51 O          28.6965  -47.4380  -56.3829 O.2       4 UNK        -0.5119 
     52 CA         30.9576  -48.2043  -56.4889 C.3       4 UNK         0.0263 
     53 CB         31.7731  -47.1810  -57.2948 C.3       4 UNK        -0.1967 
     54 N          31.8313  -48.9150  -55.5510 N.am      4 UNK        -0.4237 
     55 C          31.4795  -50.0220  -54.8797 C.2       3 UNK         0.4908 
     56 O          30.4019  -50.5978  -55.0256 O.2       3 UNK        -0.5102 
     57 CA         32.4758  -50.5392  -53.8291 C.3       3 UNK         0.0241 
     58 CB         33.6124  -51.3310  -54.4940 C.3       3 UNK        -0.1971 
     59 N          33.0310  -49.4536  -53.0161 N.am      3 UNK        -0.4139 
     60 C          32.3089  -48.7285  -52.1461 C.2       2 UNK         0.5016 
     61 O          31.1264  -48.9531  -51.8916 O.2       2 UNK        -0.5319 
     62 CA         32.9936  -47.5157  -51.4873 C.3       2 UNK         0.0286 
     63 CB         33.6343  -47.9203  -50.1510 C.3       2 UNK        -0.1963 
     64 N          34.0040  -46.8818  -52.3381 N.am      2 UNK        -0.4790 
     65 C          33.7795  -46.3771  -53.5614 C.2       1 UNK         0.5024 
     66 O          32.6586  -46.3016  -54.0591 O.2       1 UNK        -0.4888 
     67 H67        38.5500  -48.6811  -54.1221 H         1 UNK         0.0892 
     68 H68        38.5838  -47.2455  -53.0960 H         1 UNK         0.0892 
     69 H69        37.9351  -48.7629  -52.4691 H         1 UNK         0.0892 
     70 H70        36.9557  -45.7815  -53.6120 H         1 UNK         0.3107 
     71 H71        34.8519  -46.4075  -55.3802 H         1 UNK         0.0773 
     72 H72        34.1651  -44.1141  -55.1911 H         1 UNK         0.0680 
     73 H73        35.8960  -44.1725  -55.2883 H         1 UNK         0.0680 
     74 H74        34.2979  -41.2386  -52.7174 H         1 UNK         0.0650 
     75 H75        34.5794  -41.5056  -54.4177 H         1 UNK         0.0650 
     76 H76        32.4088  -42.7415  -51.5976 H         1 UNK         0.1397 
     77 H77        28.9037  -42.9686  -54.0682 H         1 UNK         0.1363 
     78 H78        32.6781  -41.9167  -55.7947 H         1 UNK         0.1355 
     79 H79        30.5841  -41.5441  -57.0273 H         1 UNK         0.0707 
     80 H80        29.0372  -41.9097  -56.3009 H         1 UNK         0.0707 
     81 H81        29.5855  -43.7141  -59.7113 H         1 UNK         0.1034 
     82 H82        29.1312  -42.2503  -58.9004 H         1 UNK         0.1034 
     83 H83        27.1892  -43.5472  -57.8225 H         1 UNK         0.0482 
     84 H84        25.4187  -44.6039  -60.1153 H         1 UNK         0.3460 
     85 H85        25.0265  -43.1284  -60.9636 H         1 UNK         0.3460 
     86 H86        27.0957  -45.7311  -58.0405 H         1 UNK         0.2989 
     87 H87        26.8025  -47.8426  -60.5498 H         1 UNK         0.0559 
     88 H88        29.6198  -48.1139  -59.3687 H         1 UNK         0.0848 
     89 H89        29.2030  -48.1652  -61.0750 H         1 UNK         0.0848 
     90 H90        28.6559  -49.4449  -60.0059 H         1 UNK         0.0848 
     91 H91        27.6748  -47.7369  -57.6792 H         1 UNK         0.3144 
     92 H92        26.5508  -48.8291  -56.1527 H         1 UNK         0.0727 
     93 H93        23.7538  -47.6868  -56.6440 H         1 UNK         0.0790 
     94 H94        25.1789  -46.7892  -56.1319 H         1 UNK         0.0790 
     95 H95        24.4713  -47.9840  -55.0602 H         1 UNK         0.0790 
     96 H96        23.9917  -50.1393  -56.8592 H         1 UNK         0.3215 
     97 H97        27.1255  -52.5740  -55.7744 H         1 UNK         0.0863 
     98 H98        28.1987  -50.2052  -57.3331 H         1 UNK         0.0808 
     99 H99        27.5571  -51.6283  -58.1471 H         1 UNK         0.0808 
    100 H100       28.9210  -51.7769  -57.0546 H         1 UNK         0.0808 
    101 H101       28.4013  -50.3885  -54.8891 H         1 UNK         0.3118 
    102 H102       26.8397  -49.6941  -51.7918 H         1 UNK         0.0546 
    103 H103       28.9649  -50.5626  -50.8677 H         1 UNK         0.0828 
    104 H104       29.3169  -51.3989  -52.3783 H         1 UNK         0.0828 
    105 H105       27.9504  -51.8984  -51.3890 H         1 UNK         0.0828 
    106 H106       29.3993  -48.9760  -52.8172 H         1 UNK         0.3005 
    107 H107       28.3726  -45.8375  -54.2119 H         1 UNK         0.1257 
    108 H108       30.4997  -45.5954  -52.5665 H         1 UNK         0.0775 
    109 H109       29.6210  -46.6969  -51.5577 H         1 UNK         0.0775 
    110 H110       29.2504  -42.3971  -51.0883 H         1 UNK         0.0840 
    111 H111       30.4037  -43.6376  -50.6617 H         1 UNK         0.0840 
    112 H112       30.9016  -47.1045  -54.1670 H         1 UNK         0.2987 
    113 H113       30.5513  -48.9399  -57.1861 H         1 UNK         0.0785 
    114 H114       32.5925  -47.6580  -57.8324 H         1 UNK         0.0798 
    115 H115       31.1461  -46.6832  -58.0356 H         1 UNK         0.0798 
    116 H116       32.1937  -46.4020  -56.6584 H         1 UNK         0.0798 
    117 H117       32.7180  -48.4822  -55.3383 H         1 UNK         0.3079 
    118 H118       31.9347  -51.2160  -53.1640 H         1 UNK         0.0794 
    119 H119       34.2891  -51.7522  -53.7503 H         1 UNK         0.0786 
    120 H120       34.2028  -50.7079  -55.1670 H         1 UNK         0.0786 
    121 H121       33.2172  -52.1618  -55.0804 H         1 UNK         0.0786 
    122 H122       33.9946  -49.1908  -53.1964 H         1 UNK         0.3032 
    123 H123       32.2199  -46.7729  -51.2849 H         1 UNK         0.1094 
    124 H124       32.8971  -48.3764  -49.4883 H         1 UNK         0.0794 
    125 H125       34.4391  -48.6434  -50.2903 H         1 UNK         0.0794 
    126 H126       34.0445  -47.0555  -49.6290 H         1 UNK         0.0794 
    127 H127       34.9571  -46.8997  -52.0059 H         1 UNK         0.3016 
@<TRIPOS>BOND
     1    1    2 1    
     2    1   67 1    
     3    1   68 1    
     4    1   69 1    
     5    2    3 2    
     6    2    4 am   BACKBONE|DICT|INTERRES
     7    4    5 1    
     8    4   70 1    
     9    5    6 1    
    10    5   65 1    
    11    5   71 1    
    12    6    7 1    
    13    6   72 1    
    14    6   73 1    
    15    7    8 1    
    16    8    9 1    
    17    8   74 1    
    18    8   75 1    
    19    9   10 ar   
    20    9   14 ar   
    21   10   11 ar   
    22   10   76 1    
    23   11   12 ar   
    24   11   48 1    
    25   12   13 ar   
    26   12   77 1    
    27   13   14 ar   
    28   13   15 1    
    29   14   78 1    
    30   15   16 1    
    31   15   79 1    
    32   15   80 1    
    33   16   17 1    
    34   17   18 1    
    35   17   81 1    
    36   17   82 1    
    37   18   19 1    
    38   18   22 1    
    39   18   83 1    
    40   19   20 am   BACKBONE|DICT|INTERRES
    41   19   21 2    
    42   20   84 1    
    43   20   85 1    
    44   22   23 am   BACKBONE|DICT|INTERRES
    45   22   86 1    
    46   23   24 2    
    47   23   25 1    
    48   25   26 1    
    49   25   27 1    
    50   25   87 1    
    51   26   88 1    
    52   26   89 1    
    53   26   90 1    
    54   27   28 am   BACKBONE|DICT|INTERRES
    55   27   91 1    
    56   28   29 2    
    57   28   30 1    
    58   30   31 1    
    59   30   32 1    
    60   30   92 1    
    61   31   93 1    
    62   31   94 1    
    63   31   95 1    
    64   32   33 am   BACKBONE|DICT|INTERRES
    65   32   96 1    
    66   33   34 2    
    67   33   35 1    
    68   35   36 1    
    69   35   37 1    
    70   35   97 1    
    71   36   98 1    
    72   36   99 1    
    73   36  100 1    
    74   37   38 am   BACKBONE|DICT|INTERRES
    75   37  101 1    
    76   38   39 2    
    77   38   40 1    
    78   40   41 1    
    79   40   42 1    
    80   40  102 1    
    81   41  103 1    
    82   41  104 1    
    83   41  105 1    
    84   42   43 am   BACKBONE|DICT|INTERRES
    85   42  106 1    
    86   43   44 2    
    87   43   45 1    
    88   45   46 1    
    89   45   49 1    
    90   45  107 1    
    91   46   47 1    
    92   46  108 1    
    93   46  109 1    
    94   47   48 1    
    95   48  110 1    
    96   48  111 1    
    97   49   50 am   BACKBONE|DICT|INTERRES
    98   49  112 1    
    99   50   51 2    
   100   50   52 1    
   101   52   53 1    
   102   52   54 1    
   103   52  113 1    
   104   53  114 1    
   105   53  115 1    
   106   53  116 1    
   107   54   55 am   BACKBONE|DICT|INTERRES
   108   54  117 1    
   109   55   56 2    
   110   55   57 1    
   111   57   58 1    
   112   57   59 1    
   113   57  118 1    
   114   58  119 1    
   115   58  120 1    
   116   58  121 1    
   117   59   60 am   BACKBONE|DICT|INTERRES
   118   59  122 1    
   119   60   61 2    
   120   60   62 1    
   121   62   63 1    
   122   62   64 1    
   123   62  123 1    
   124   63  124 1    
   125   63  125 1    
   126   63  126 1    
   127   64   65 am   BACKBONE|DICT|INTERRES
   128   64  127 1    
   129   65   66 2    
@<TRIPOS>SUBSTRUCTURE
     1 UNK         1 GROUP             0       ****    0 ROOT    
