@<TRIPOS>MOLECULE
3R134
127   129    1
SMALL
USER_CHARGES


@<TRIPOS>ATOM
      1 CA         32.5955  -45.4114  -49.0348 C.3       0 UNK        -0.1968 
      2 C          33.6770  -45.7224  -50.0579 C.2       0 UNK         0.4852 
      3 O          34.6545  -46.3981  -49.7313 O.2       0 UNK        -0.5359 
      4 N          33.5092  -45.2387  -51.2954 N.am      1 UNK        -0.4300 
      5 CA         34.4430  -45.3780  -52.4226 C.3       1 UNK         0.0863 
      6 C6         34.2378  -44.2701  -53.4919 C.3       11 UNK        -0.0953 
      7 S7         34.1881  -42.5870  -52.7739 S.3       11 UNK        -0.2369 
      8 C8         33.1367  -41.6598  -53.9462 C.3       11 UNK         0.0226 
      9 C9         31.8280  -42.3680  -54.2762 C.ar      11 UNK        -0.0699 
     10 C10        30.9412  -42.7406  -53.2607 C.ar      11 UNK        -0.0804 
     11 C11        29.7854  -43.4678  -53.5617 C.ar      11 UNK        -0.0871 
     12 C12        29.4920  -43.7739  -54.8943 C.ar      11 UNK        -0.1008 
     13 C13        30.3596  -43.3899  -55.9181 C.ar      11 UNK        -0.0735 
     14 C14        31.5266  -42.6886  -55.6038 C.ar      11 UNK        -0.0945 
     15 C15        30.0456  -43.7523  -57.3598 C.3       11 UNK         0.0169 
     16 S16        28.7633  -42.6573  -58.0420 S.3       11 UNK        -0.2669 
     17 C17        28.9382  -42.9684  -59.8308 C.3       11 UNK        -0.0850 
     18 CA         27.7736  -43.7956  -60.4330 C.3       10 UNK         0.0855 
     19 C          27.9313  -43.8537  -61.9797 C.2       10 UNK         0.5543 
     20 N          27.2495  -42.9801  -62.7075 N.am      10 UNK        -0.7343 
     21 O          28.7033  -44.6478  -62.5139 O.2       10 UNK        -0.5027 
     22 N          27.6768  -45.1242  -59.8039 N.am      10 UNK        -0.4495 
     23 C          26.8130  -46.0907  -60.1430 C.2       10 UNK         0.4903 
     24 O          25.9115  -45.9607  -60.9719 O.2       10 UNK        -0.4860 
     25 CA         26.9915  -47.4396  -59.4311 C.3       9 UNK         0.0227 
     26 CB         28.3417  -48.0884  -59.7855 C.3       9 UNK        -0.1964 
     27 N          26.8624  -47.3477  -57.9776 N.am      9 UNK        -0.4231 
     28 C          25.7320  -47.0813  -57.3092 C.2       9 UNK         0.5014 
     29 O          24.6706  -46.7521  -57.8427 O.2       9 UNK        -0.5270 
     30 CA         25.8071  -47.2969  -55.7841 C.3       8 UNK         0.0284 
     31 CB         24.4683  -47.0460  -55.0593 C.3       8 UNK        -0.1977 
     32 N          26.3402  -48.6294  -55.4632 N.am      8 UNK        -0.4342 
     33 C          25.8486  -49.8231  -55.8350 C.2       8 UNK         0.5039 
     34 O          24.7703  -49.9807  -56.4087 O.2       8 UNK        -0.5547 
     35 CA         26.7224  -51.0603  -55.5591 C.3       7 UNK         0.0281 
     36 CB         27.4380  -51.4911  -56.8505 C.3       7 UNK        -0.1963 
     37 N          27.7224  -50.8418  -54.5113 N.am      7 UNK        -0.4444 
     38 C          27.4598  -50.8683  -53.1972 C.2       7 UNK         0.5104 
     39 O          26.3582  -51.1462  -52.7224 O.2       7 UNK        -0.5100 
     40 CA         28.6149  -50.4827  -52.2542 C.3       6 UNK         0.0396 
     41 CB         29.5682  -51.6690  -52.0466 C.3       6 UNK        -0.1801 
     42 N          29.3674  -49.3143  -52.7240 N.am      6 UNK        -0.4747 
     43 C          28.8400  -48.0904  -52.8849 C.2       6 UNK         0.5012 
     44 O          27.6691  -47.8117  -52.6284 O.2       6 UNK        -0.5003 
     45 CA         29.7438  -47.0087  -53.4946 C.3       5 UNK         0.0782 
     46 C46        30.5965  -46.2758  -52.4371 C.3       11 UNK        -0.0868 
     47 S47        29.6771  -45.1508  -51.3266 S.3       11 UNK        -0.2515 
     48 C48        28.8680  -43.9546  -52.4484 C.3       11 UNK         0.0199 
     49 N          30.5868  -47.5624  -54.5526 N.am      5 UNK        -0.4607 
     50 C          30.1935  -47.7355  -55.8198 C.2       4 UNK         0.5031 
     51 O          29.0859  -47.4106  -56.2460 O.2       4 UNK        -0.5119 
     52 CA         31.1918  -48.4099  -56.7729 C.3       4 UNK         0.0263 
     53 CB         32.0868  -47.3541  -57.4401 C.3       4 UNK        -0.1967 
     54 N          32.0243  -49.4178  -56.1110 N.am      4 UNK        -0.4237 
     55 C          31.5508  -50.5475  -55.5647 C.2       3 UNK         0.4908 
     56 O          30.3639  -50.8710  -55.5821 O.2       3 UNK        -0.5102 
     57 CA         32.5574  -51.4516  -54.8362 C.3       3 UNK         0.0241 
     58 CB         33.1817  -52.4558  -55.8177 C.3       3 UNK        -0.1971 
     59 N          33.6212  -50.7304  -54.1313 N.am      3 UNK        -0.4139 
     60 C          33.4500  -49.7990  -53.1814 C.2       2 UNK         0.5016 
     61 O          32.3434  -49.3896  -52.8174 O.2       2 UNK        -0.5319 
     62 CA         34.7284  -49.2446  -52.5163 C.3       2 UNK         0.0286 
     63 CB         36.0250  -49.5273  -53.3109 C.3       2 UNK        -0.1963 
     64 N          34.6421  -47.8151  -52.1998 N.am      2 UNK        -0.4790 
     65 C          34.4021  -46.7988  -53.0393 C.2       1 UNK         0.5024 
     66 O          34.1570  -46.9505  -54.2383 O.2       1 UNK        -0.4888 
     67 H67        33.0449  -45.1545  -48.0760 H         1 UNK         0.0892 
     68 H68        31.9729  -44.5733  -49.3474 H         1 UNK         0.0892 
     69 H69        31.9540  -46.2804  -48.8908 H         1 UNK         0.0892 
     70 H70        32.6851  -44.6909  -51.4950 H         1 UNK         0.3107 
     71 H71        35.4525  -45.2491  -52.0261 H         1 UNK         0.0773 
     72 H72        35.0439  -44.2984  -54.2271 H         1 UNK         0.0680 
     73 H73        33.3194  -44.4619  -54.0465 H         1 UNK         0.0680 
     74 H74        32.9134  -40.6807  -53.5209 H         1 UNK         0.0650 
     75 H75        33.7156  -41.4765  -54.8527 H         1 UNK         0.0650 
     76 H76        31.1738  -42.5041  -52.2314 H         1 UNK         0.1397 
     77 H77        28.5940  -44.3226  -55.1434 H         1 UNK         0.1363 
     78 H78        32.2080  -42.4039  -56.3938 H         1 UNK         0.1355 
     79 H79        29.7082  -44.7883  -57.4144 H         1 UNK         0.0707 
     80 H80        30.9510  -43.6869  -57.9652 H         1 UNK         0.0707 
     81 H81        28.9922  -41.9911  -60.3153 H         1 UNK         0.1034 
     82 H82        29.8959  -43.4499  -60.0376 H         1 UNK         0.1034 
     83 H83        26.8379  -43.2798  -60.2086 H         1 UNK         0.0482 
     84 H84        26.6228  -42.3181  -62.2765 H         1 UNK         0.3460 
     85 H85        27.3527  -42.9910  -63.7103 H         1 UNK         0.3460 
     86 H86        28.3649  -45.3263  -59.0965 H         1 UNK         0.2989 
     87 H87        26.2023  -48.1051  -59.7877 H         1 UNK         0.0559 
     88 H88        29.1860  -47.5227  -59.3900 H         1 UNK         0.0848 
     89 H89        28.4711  -48.1545  -60.8667 H         1 UNK         0.0848 
     90 H90        28.4077  -49.1025  -59.3908 H         1 UNK         0.0848 
     91 H91        27.6964  -47.5367  -57.4239 H         1 UNK         0.3144 
     92 H92        26.5287  -46.5729  -55.4021 H         1 UNK         0.0727 
     93 H93        24.1218  -46.0253  -55.2251 H         1 UNK         0.0790 
     94 H94        24.5717  -47.1837  -53.9829 H         1 UNK         0.0790 
     95 H95        23.6832  -47.7166  -55.4098 H         1 UNK         0.0790 
     96 H96        27.2372  -48.6299  -54.9987 H         1 UNK         0.3215 
     97 H97        26.0597  -51.8712  -55.2486 H         1 UNK         0.0863 
     98 H98        28.0318  -52.3919  -56.6942 H         1 UNK         0.0808 
     99 H99        28.1050  -50.7111  -57.2205 H         1 UNK         0.0808 
    100 H100       26.7199  -51.7086  -57.6423 H         1 UNK         0.0808 
    101 H101       28.6807  -50.6841  -54.8200 H         1 UNK         0.3118 
    102 H102       28.1835  -50.2234  -51.2852 H         1 UNK         0.0546 
    103 H103       29.9767  -52.0267  -52.9909 H         1 UNK         0.0828 
    104 H104       29.0469  -52.5074  -51.5830 H         1 UNK         0.0828 
    105 H105       30.4020  -51.4042  -51.3961 H         1 UNK         0.0828 
    106 H106       30.3562  -49.4464  -52.9196 H         1 UNK         0.3005 
    107 H107       29.0732  -46.2854  -53.9553 H         1 UNK         0.1257 
    108 H108       31.3515  -45.6776  -52.9472 H         1 UNK         0.0775 
    109 H109       31.1513  -46.9916  -51.8271 H         1 UNK         0.0775 
    110 H110       27.9667  -44.4127  -52.8588 H         1 UNK         0.0840 
    111 H111       28.5293  -43.0980  -51.8639 H         1 UNK         0.0840 
    112 H112       31.4977  -47.9034  -54.2706 H         1 UNK         0.2987 
    113 H113       30.6141  -48.9137  -57.5508 H         1 UNK         0.0785 
    114 H114       32.6956  -46.8198  -56.7089 H         1 UNK         0.0798 
    115 H115       31.4874  -46.6122  -57.9694 H         1 UNK         0.0798 
    116 H116       32.7578  -47.8062  -58.1706 H         1 UNK         0.0798 
    117 H117       33.0102  -49.2150  -56.0252 H         1 UNK         0.3079 
    118 H118       32.0044  -52.0167  -54.0851 H         1 UNK         0.0794 
    119 H119       32.4092  -53.0223  -56.3402 H         1 UNK         0.0786 
    120 H120       33.8137  -53.1778  -55.3001 H         1 UNK         0.0786 
    121 H121       33.7892  -51.9584  -56.5749 H         1 UNK         0.0786 
    122 H122       34.5680  -50.9933  -54.3636 H         1 UNK         0.3032 
    123 H123       34.8073  -49.7609  -51.5582 H         1 UNK         0.1094 
    124 H124       36.8913  -49.0944  -52.8101 H         1 UNK         0.0794 
    125 H125       36.2203  -50.5968  -53.3977 H         1 UNK         0.0794 
    126 H126       35.9866  -49.1084  -54.3176 H         1 UNK         0.0794 
    127 H127       34.7669  -47.5662  -51.2206 H         1 UNK         0.3016 
@<TRIPOS>BOND
     1    1    2 1    
     2    1   67 1    
     3    1   68 1    
     4    1   69 1    
     5    2    3 2    
     6    2    4 am   BACKBONE|DICT|INTERRES
     7    4    5 1    
     8    4   70 1    
     9    5    6 1    
    10    5   65 1    
    11    5   71 1    
    12    6    7 1    
    13    6   72 1    
    14    6   73 1    
    15    7    8 1    
    16    8    9 1    
    17    8   74 1    
    18    8   75 1    
    19    9   10 ar   
    20    9   14 ar   
    21   10   11 ar   
    22   10   76 1    
    23   11   12 ar   
    24   11   48 1    
    25   12   13 ar   
    26   12   77 1    
    27   13   14 ar   
    28   13   15 1    
    29   14   78 1    
    30   15   16 1    
    31   15   79 1    
    32   15   80 1    
    33   16   17 1    
    34   17   18 1    
    35   17   81 1    
    36   17   82 1    
    37   18   19 1    
    38   18   22 1    
    39   18   83 1    
    40   19   20 am   BACKBONE|DICT|INTERRES
    41   19   21 2    
    42   20   84 1    
    43   20   85 1    
    44   22   23 am   BACKBONE|DICT|INTERRES
    45   22   86 1    
    46   23   24 2    
    47   23   25 1    
    48   25   26 1    
    49   25   27 1    
    50   25   87 1    
    51   26   88 1    
    52   26   89 1    
    53   26   90 1    
    54   27   28 am   BACKBONE|DICT|INTERRES
    55   27   91 1    
    56   28   29 2    
    57   28   30 1    
    58   30   31 1    
    59   30   32 1    
    60   30   92 1    
    61   31   93 1    
    62   31   94 1    
    63   31   95 1    
    64   32   33 am   BACKBONE|DICT|INTERRES
    65   32   96 1    
    66   33   34 2    
    67   33   35 1    
    68   35   36 1    
    69   35   37 1    
    70   35   97 1    
    71   36   98 1    
    72   36   99 1    
    73   36  100 1    
    74   37   38 am   BACKBONE|DICT|INTERRES
    75   37  101 1    
    76   38   39 2    
    77   38   40 1    
    78   40   41 1    
    79   40   42 1    
    80   40  102 1    
    81   41  103 1    
    82   41  104 1    
    83   41  105 1    
    84   42   43 am   BACKBONE|DICT|INTERRES
    85   42  106 1    
    86   43   44 2    
    87   43   45 1    
    88   45   46 1    
    89   45   49 1    
    90   45  107 1    
    91   46   47 1    
    92   46  108 1    
    93   46  109 1    
    94   47   48 1    
    95   48  110 1    
    96   48  111 1    
    97   49   50 am   BACKBONE|DICT|INTERRES
    98   49  112 1    
    99   50   51 2    
   100   50   52 1    
   101   52   53 1    
   102   52   54 1    
   103   52  113 1    
   104   53  114 1    
   105   53  115 1    
   106   53  116 1    
   107   54   55 am   BACKBONE|DICT|INTERRES
   108   54  117 1    
   109   55   56 2    
   110   55   57 1    
   111   57   58 1    
   112   57   59 1    
   113   57  118 1    
   114   58  119 1    
   115   58  120 1    
   116   58  121 1    
   117   59   60 am   BACKBONE|DICT|INTERRES
   118   59  122 1    
   119   60   61 2    
   120   60   62 1    
   121   62   63 1    
   122   62   64 1    
   123   62  123 1    
   124   63  124 1    
   125   63  125 1    
   126   63  126 1    
   127   64   65 am   BACKBONE|DICT|INTERRES
   128   64  127 1    
   129   65   66 2    
@<TRIPOS>SUBSTRUCTURE
     1 UNK         1 GROUP             0       ****    0 ROOT    
