@<TRIPOS>MOLECULE
3R134
127   129    1
SMALL
USER_CHARGES


@<TRIPOS>ATOM
      1 CA         36.8578  -43.4132  -53.5591 C.3       0 UNK        -0.1968 
      2 C          36.9227  -44.7300  -54.3187 C.2       0 UNK         0.4852 
      3 O          38.0122  -45.1709  -54.6870 O.2       0 UNK        -0.5359 
      4 N          35.7638  -45.3598  -54.5538 N.am      1 UNK        -0.4300 
      5 CA         35.6252  -46.6435  -55.2537 C.3       1 UNK         0.0863 
      6 C6         34.2260  -46.8201  -55.9090 C.3       11 UNK        -0.0953 
      7 S7         32.7953  -46.3055  -54.8880 S.3       11 UNK        -0.2369 
      8 C8         32.4754  -44.6585  -55.6134 C.3       11 UNK         0.0226 
      9 C9         31.1754  -43.9896  -55.1715 C.ar      11 UNK        -0.0699 
     10 C10        30.6716  -44.1133  -53.8701 C.ar      11 UNK        -0.0804 
     11 C11        29.4967  -43.4492  -53.4948 C.ar      11 UNK        -0.0871 
     12 C12        28.8369  -42.6393  -54.4251 C.ar      11 UNK        -0.1008 
     13 C13        29.3390  -42.4910  -55.7198 C.ar      11 UNK        -0.0735 
     14 C14        30.5008  -43.1739  -56.0858 C.ar      11 UNK        -0.0945 
     15 C15        28.6639  -41.5559  -56.7133 C.3       11 UNK         0.0169 
     16 S16        27.5458  -42.4415  -57.8426 S.3       11 UNK        -0.2669 
     17 C17        26.0443  -42.6363  -56.8202 C.3       11 UNK        -0.0850 
     18 CA         25.8929  -44.0623  -56.2175 C.3       10 UNK         0.0855 
     19 C          24.7082  -44.1713  -55.2130 C.2       10 UNK         0.5543 
     20 N          24.0033  -45.2939  -55.1409 N.am      10 UNK        -0.7343 
     21 O          24.4448  -43.2384  -54.4586 O.2       10 UNK        -0.5027 
     22 N          25.9521  -45.1458  -57.2126 N.am      10 UNK        -0.4495 
     23 C          25.1631  -45.3207  -58.2813 C.2       10 UNK         0.4903 
     24 O          24.2353  -44.5675  -58.5796 O.2       10 UNK        -0.4860 
     25 CA         25.4349  -46.5715  -59.1457 C.3       9 UNK         0.0227 
     26 CB         25.0510  -46.3718  -60.6274 C.3       9 UNK        -0.1964 
     27 N          26.8020  -47.0934  -59.0072 N.am      9 UNK        -0.4231 
     28 C          27.9532  -46.5012  -59.3702 C.2       9 UNK         0.5014 
     29 O          28.0115  -45.4580  -60.0213 O.2       9 UNK        -0.5270 
     30 CA         29.2689  -47.1617  -58.9107 C.3       8 UNK         0.0284 
     31 CB         30.1152  -46.1722  -58.0899 C.3       8 UNK        -0.1977 
     32 N          29.0326  -48.3514  -58.0909 N.am      8 UNK        -0.4342 
     33 C          29.0593  -49.6159  -58.5322 C.2       8 UNK         0.5039 
     34 O          29.3665  -49.9356  -59.6809 O.2       8 UNK        -0.5547 
     35 CA         28.6455  -50.7120  -57.5318 C.3       7 UNK         0.0281 
     36 CB         29.8888  -51.3383  -56.8789 C.3       7 UNK        -0.1963 
     37 N          27.7299  -50.2275  -56.4910 N.am      7 UNK        -0.4444 
     38 C          26.4675  -49.8326  -56.7246 C.2       7 UNK         0.5104 
     39 O          25.9420  -49.8732  -57.8365 O.2       7 UNK        -0.5100 
     40 CA         25.6662  -49.2284  -55.5546 C.3       6 UNK         0.0396 
     41 CB         24.7962  -50.3067  -54.8913 C.3       6 UNK        -0.1801 
     42 N          26.4851  -48.5736  -54.5316 N.am      6 UNK        -0.4747 
     43 C          27.3498  -47.5703  -54.7428 C.2       6 UNK         0.5012 
     44 O          27.5273  -47.0470  -55.8429 O.2       6 UNK        -0.5003 
     45 CA         28.2155  -47.1322  -53.5459 C.3       5 UNK         0.0782 
     46 C46        27.5662  -45.9397  -52.8043 C.3       11 UNK        -0.0868 
     47 S47        28.6819  -45.2748  -51.5212 S.3       11 UNK        -0.2515 
     48 C48        28.9525  -43.5588  -52.0742 C.3       11 UNK         0.0199 
     49 N          28.5364  -48.2298  -52.6200 N.am      5 UNK        -0.4607 
     50 C          29.1338  -49.3824  -52.9444 C.2       4 UNK         0.5031 
     51 O          29.3741  -49.7356  -54.1003 O.2       4 UNK        -0.5119 
     52 CA         29.5078  -50.3146  -51.7814 C.3       4 UNK         0.0263 
     53 CB         28.5245  -51.4935  -51.7011 C.3       4 UNK        -0.1967 
     54 N          30.8701  -50.8241  -51.9484 N.am      4 UNK        -0.4237 
     55 C          31.9632  -50.0500  -51.9432 C.2       3 UNK         0.4908 
     56 O          31.9514  -48.8484  -51.6560 O.2       3 UNK        -0.5102 
     57 CA         33.2823  -50.7242  -52.3413 C.3       3 UNK         0.0241 
     58 CB         33.2233  -51.2853  -53.7772 C.3       3 UNK        -0.1971 
     59 N          34.3381  -49.7234  -52.2561 N.am      3 UNK        -0.4139 
     60 C          35.6403  -49.9449  -52.0619 C.2       2 UNK         0.5016 
     61 O          36.1296  -51.0648  -51.8987 O.2       2 UNK        -0.5319 
     62 CA         36.5372  -48.6889  -52.0650 C.3       2 UNK         0.0286 
     63 CB         38.0367  -49.0235  -52.2170 C.3       2 UNK        -0.1963 
     64 N          36.1276  -47.6872  -53.0646 N.am      2 UNK        -0.4790 
     65 C          36.0354  -47.8608  -54.3954 C.2       1 UNK         0.5024 
     66 O          36.2771  -48.9266  -54.9639 O.2       1 UNK        -0.4888 
     67 H67        35.8346  -43.1392  -53.3024 H         1 UNK         0.0892 
     68 H68        37.4320  -43.4839  -52.6356 H         1 UNK         0.0892 
     69 H69        37.2813  -42.6112  -54.1631 H         1 UNK         0.0892 
     70 H70        34.8983  -44.9605  -54.2197 H         1 UNK         0.3107 
     71 H71        36.3445  -46.6340  -56.0761 H         1 UNK         0.0773 
     72 H72        34.0649  -47.8555  -56.2161 H         1 UNK         0.0680 
     73 H73        34.2075  -46.2556  -56.8420 H         1 UNK         0.0680 
     74 H74        32.4706  -44.7616  -56.6994 H         1 UNK         0.0650 
     75 H75        33.3043  -43.9930  -55.3716 H         1 UNK         0.0650 
     76 H76        31.1931  -44.7209  -53.1434 H         1 UNK         0.1397 
     77 H77        27.9405  -42.1067  -54.1379 H         1 UNK         0.1363 
     78 H78        30.8906  -43.0519  -57.0874 H         1 UNK         0.1355 
     79 H79        28.1241  -40.7621  -56.1948 H         1 UNK         0.0707 
     80 H80        29.4272  -41.0539  -57.3097 H         1 UNK         0.0707 
     81 H81        26.0590  -41.8863  -56.0280 H         1 UNK         0.1034 
     82 H82        25.1778  -42.3904  -57.4354 H         1 UNK         0.1034 
     83 H83        26.7749  -44.2283  -55.6007 H         1 UNK         0.0482 
     84 H84        24.2113  -46.0644  -55.7535 H         1 UNK         0.3460 
     85 H85        23.2444  -45.3593  -54.4812 H         1 UNK         0.3460 
     86 H86        26.6523  -45.8531  -57.0098 H         1 UNK         0.2989 
     87 H87        24.7847  -47.3511  -58.7466 H         1 UNK         0.0559 
     88 H88        25.5922  -45.5400  -61.0789 H         1 UNK         0.0848 
     89 H89        23.9868  -46.1561  -60.7294 H         1 UNK         0.0848 
     90 H90        25.2561  -47.2662  -61.2155 H         1 UNK         0.0848 
     91 H91        26.8689  -47.9769  -58.5175 H         1 UNK         0.3144 
     92 H92        29.8307  -47.4291  -59.8079 H         1 UNK         0.0727 
     93 H93        29.5853  -45.8280  -57.2005 H         1 UNK         0.0790 
     94 H94        30.3684  -45.2887  -58.6772 H         1 UNK         0.0790 
     95 H95        31.0524  -46.6252  -57.7662 H         1 UNK         0.0790 
     96 H96        28.7402  -48.1748  -57.1358 H         1 UNK         0.3215 
     97 H97        28.1278  -51.4920  -58.0946 H         1 UNK         0.0863 
     98 H98        29.6168  -52.1195  -56.1689 H         1 UNK         0.0808 
     99 H99        30.4851  -50.5952  -56.3481 H         1 UNK         0.0808 
    100 H100       30.5347  -51.7932  -57.6310 H         1 UNK         0.0808 
    101 H101       28.1231  -50.1171  -55.5592 H         1 UNK         0.3118 
    102 H102       25.0053  -48.4678  -55.9747 H         1 UNK         0.0546 
    103 H103       25.4024  -51.0817  -54.4205 H         1 UNK         0.0828 
    104 H104       24.1541  -50.7965  -55.6251 H         1 UNK         0.0828 
    105 H105       24.1442  -49.8793  -54.1294 H         1 UNK         0.0828 
    106 H106       26.4274  -48.9518  -53.5970 H         1 UNK         0.3005 
    107 H107       29.1635  -46.7925  -53.9709 H         1 UNK         0.1257 
    108 H108       26.6322  -46.2426  -52.3274 H         1 UNK         0.0775 
    109 H109       27.3032  -45.1434  -53.5012 H         1 UNK         0.0775 
    110 H110       28.0117  -43.0145  -51.9757 H         1 UNK         0.0840 
    111 H111       29.6547  -43.0779  -51.3920 H         1 UNK         0.0840 
    112 H112       28.3873  -48.0220  -51.6430 H         1 UNK         0.2987 
    113 H113       29.4658  -49.7573  -50.8430 H         1 UNK         0.0785 
    114 H114       27.5033  -51.1407  -51.5511 H         1 UNK         0.0798 
    115 H115       28.7631  -52.1542  -50.8674 H         1 UNK         0.0798 
    116 H116       28.5318  -52.0892  -52.6152 H         1 UNK         0.0798 
    117 H117       30.9598  -51.7925  -52.2186 H         1 UNK         0.3079 
    118 H118       33.4841  -51.5294  -51.6317 H         1 UNK         0.0794 
    119 H119       34.1798  -51.7157  -54.0748 H         1 UNK         0.0786 
    120 H120       32.9708  -50.5076  -54.4998 H         1 UNK         0.0786 
    121 H121       32.4758  -52.0735  -53.8702 H         1 UNK         0.0786 
    122 H122       34.0005  -48.7700  -52.3106 H         1 UNK         0.3032 
    123 H123       36.4031  -48.2250  -51.0862 H         1 UNK         0.1094 
    124 H124       38.6484  -48.1215  -52.1974 H         1 UNK         0.0794 
    125 H125       38.2422  -49.5477  -53.1508 H         1 UNK         0.0794 
    126 H126       38.3795  -49.6637  -51.4032 H         1 UNK         0.0794 
    127 H127       35.9017  -46.7716  -52.7017 H         1 UNK         0.3016 
@<TRIPOS>BOND
     1    1    2 1    
     2    1   67 1    
     3    1   68 1    
     4    1   69 1    
     5    2    3 2    
     6    2    4 am   BACKBONE|DICT|INTERRES
     7    4    5 1    
     8    4   70 1    
     9    5    6 1    
    10    5   65 1    
    11    5   71 1    
    12    6    7 1    
    13    6   72 1    
    14    6   73 1    
    15    7    8 1    
    16    8    9 1    
    17    8   74 1    
    18    8   75 1    
    19    9   10 ar   
    20    9   14 ar   
    21   10   11 ar   
    22   10   76 1    
    23   11   12 ar   
    24   11   48 1    
    25   12   13 ar   
    26   12   77 1    
    27   13   14 ar   
    28   13   15 1    
    29   14   78 1    
    30   15   16 1    
    31   15   79 1    
    32   15   80 1    
    33   16   17 1    
    34   17   18 1    
    35   17   81 1    
    36   17   82 1    
    37   18   19 1    
    38   18   22 1    
    39   18   83 1    
    40   19   20 am   BACKBONE|DICT|INTERRES
    41   19   21 2    
    42   20   84 1    
    43   20   85 1    
    44   22   23 am   BACKBONE|DICT|INTERRES
    45   22   86 1    
    46   23   24 2    
    47   23   25 1    
    48   25   26 1    
    49   25   27 1    
    50   25   87 1    
    51   26   88 1    
    52   26   89 1    
    53   26   90 1    
    54   27   28 am   BACKBONE|DICT|INTERRES
    55   27   91 1    
    56   28   29 2    
    57   28   30 1    
    58   30   31 1    
    59   30   32 1    
    60   30   92 1    
    61   31   93 1    
    62   31   94 1    
    63   31   95 1    
    64   32   33 am   BACKBONE|DICT|INTERRES
    65   32   96 1    
    66   33   34 2    
    67   33   35 1    
    68   35   36 1    
    69   35   37 1    
    70   35   97 1    
    71   36   98 1    
    72   36   99 1    
    73   36  100 1    
    74   37   38 am   BACKBONE|DICT|INTERRES
    75   37  101 1    
    76   38   39 2    
    77   38   40 1    
    78   40   41 1    
    79   40   42 1    
    80   40  102 1    
    81   41  103 1    
    82   41  104 1    
    83   41  105 1    
    84   42   43 am   BACKBONE|DICT|INTERRES
    85   42  106 1    
    86   43   44 2    
    87   43   45 1    
    88   45   46 1    
    89   45   49 1    
    90   45  107 1    
    91   46   47 1    
    92   46  108 1    
    93   46  109 1    
    94   47   48 1    
    95   48  110 1    
    96   48  111 1    
    97   49   50 am   BACKBONE|DICT|INTERRES
    98   49  112 1    
    99   50   51 2    
   100   50   52 1    
   101   52   53 1    
   102   52   54 1    
   103   52  113 1    
   104   53  114 1    
   105   53  115 1    
   106   53  116 1    
   107   54   55 am   BACKBONE|DICT|INTERRES
   108   54  117 1    
   109   55   56 2    
   110   55   57 1    
   111   57   58 1    
   112   57   59 1    
   113   57  118 1    
   114   58  119 1    
   115   58  120 1    
   116   58  121 1    
   117   59   60 am   BACKBONE|DICT|INTERRES
   118   59  122 1    
   119   60   61 2    
   120   60   62 1    
   121   62   63 1    
   122   62   64 1    
   123   62  123 1    
   124   63  124 1    
   125   63  125 1    
   126   63  126 1    
   127   64   65 am   BACKBONE|DICT|INTERRES
   128   64  127 1    
   129   65   66 2    
@<TRIPOS>SUBSTRUCTURE
     1 UNK         1 GROUP             0       ****    0 ROOT    
