@<TRIPOS>MOLECULE
3R134
127   129    1
SMALL
USER_CHARGES


@<TRIPOS>ATOM
      1 CA         28.4484  -46.0136  -53.8179 C.3       0 UNK        -0.1968 
      2 C          29.4565  -46.5544  -52.8257 C.2       0 UNK         0.4852 
      3 O          29.1313  -47.4712  -52.0669 O.2       0 UNK        -0.5359 
      4 N          30.6634  -45.9736  -52.8163 N.am      1 UNK        -0.4300 
      5 CA         31.7362  -46.3032  -51.8789 C.3       1 UNK         0.0863 
      6 C6         32.8483  -45.2241  -51.8530 C.3       11 UNK        -0.0953 
      7 S7         33.7127  -44.9346  -53.4366 S.3       11 UNK        -0.2369 
      8 C8         33.0530  -43.3260  -53.9977 C.3       11 UNK         0.0226 
      9 C9         31.9806  -43.5002  -55.0639 C.ar      11 UNK        -0.0699 
     10 C10        32.3263  -44.0550  -56.2992 C.ar      11 UNK        -0.0804 
     11 C11        31.3542  -44.2825  -57.2758 C.ar      11 UNK        -0.0871 
     12 C12        30.0296  -43.9143  -57.0235 C.ar      11 UNK        -0.1008 
     13 C13        29.6764  -43.3117  -55.8119 C.ar      11 UNK        -0.0735 
     14 C14        30.6559  -43.1138  -54.8306 C.ar      11 UNK        -0.0945 
     15 C15        28.2270  -42.9248  -55.5447 C.3       11 UNK         0.0169 
     16 S16        27.8650  -41.2006  -55.9995 S.3       11 UNK        -0.2669 
     17 C17        27.7255  -41.2843  -57.8186 C.3       11 UNK        -0.0850 
     18 CA         26.2576  -41.1580  -58.3234 C.3       10 UNK         0.0855 
     19 C          26.1734  -40.8842  -59.8586 C.2       10 UNK         0.5543 
     20 N          25.1366  -41.3354  -60.5545 N.am      10 UNK        -0.7343 
     21 O          27.0399  -40.2231  -60.4261 O.2       10 UNK        -0.5027 
     22 N          25.3725  -42.2399  -57.8425 N.am      10 UNK        -0.4495 
     23 C          25.4688  -43.5403  -58.1517 C.2       10 UNK         0.4903 
     24 O          26.3630  -44.0226  -58.8507 O.2       10 UNK        -0.4860 
     25 CA         24.3326  -44.4394  -57.6318 C.3       9 UNK         0.0227 
     26 CB         23.0976  -44.3215  -58.5415 C.3       9 UNK        -0.1964 
     27 N          24.7457  -45.8435  -57.5787 N.am      9 UNK        -0.4231 
     28 C          25.4670  -46.3813  -56.5886 C.2       9 UNK         0.5014 
     29 O          25.7766  -45.7706  -55.5631 O.2       9 UNK        -0.5270 
     30 CA         25.9491  -47.8281  -56.8139 C.3       8 UNK         0.0284 
     31 CB         27.1174  -47.8395  -57.8126 C.3       8 UNK        -0.1977 
     32 N          26.3808  -48.4652  -55.5647 N.am      8 UNK        -0.4342 
     33 C          25.5436  -48.9179  -54.6203 C.2       8 UNK         0.5039 
     34 O          24.3209  -48.9594  -54.7760 O.2       8 UNK        -0.5547 
     35 CA         26.1384  -49.3654  -53.2652 C.3       7 UNK         0.0281 
     36 CB         25.3356  -50.5140  -52.6160 C.3       7 UNK        -0.1963 
     37 N          27.5751  -49.6699  -53.2775 N.am      7 UNK        -0.4444 
     38 C          28.1968  -50.6771  -53.9078 C.2       7 UNK         0.5104 
     39 O          27.6345  -51.5186  -54.6112 O.2       7 UNK        -0.5100 
     40 CA         29.7283  -50.7325  -53.7269 C.3       6 UNK         0.0396 
     41 CB         30.1852  -52.1477  -53.3344 C.3       6 UNK        -0.1801 
     42 N          30.5032  -50.2876  -54.8934 N.am      6 UNK        -0.4747 
     43 C          30.2689  -49.2024  -55.6481 C.2       6 UNK         0.5012 
     44 O          29.2653  -48.4983  -55.5365 O.2       6 UNK        -0.5003 
     45 CA         31.3640  -48.7941  -56.6530 C.3       5 UNK         0.0782 
     46 C46        31.1279  -47.3429  -57.1550 C.3       11 UNK        -0.0868 
     47 S47        32.3776  -46.6685  -58.3004 S.3       11 UNK        -0.2515 
     48 C48        31.7242  -44.9849  -58.5771 C.3       11 UNK         0.0199 
     49 N          32.6777  -48.9646  -56.0249 N.am      5 UNK        -0.4607 
     50 C          33.7684  -49.4221  -56.6505 C.2       4 UNK         0.5031 
     51 O          33.7657  -49.8834  -57.7925 O.2       4 UNK        -0.5119 
     52 CA         35.0922  -49.3341  -55.8770 C.3       4 UNK         0.0263 
     53 CB         35.4457  -47.8740  -55.5441 C.3       4 UNK        -0.1967 
     54 N          35.0703  -50.1228  -54.6484 N.am      4 UNK        -0.4237 
     55 C          35.0853  -51.4591  -54.5810 C.2       3 UNK         0.4908 
     56 O          35.1395  -52.1922  -55.5687 O.2       3 UNK        -0.5102 
     57 CA         35.0271  -52.1013  -53.1813 C.3       3 UNK         0.0241 
     58 CB         36.4353  -52.2215  -52.5652 C.3       3 UNK        -0.1971 
     59 N          34.0791  -51.4637  -52.2541 N.am      3 UNK        -0.4139 
     60 C          34.1181  -50.2322  -51.7259 C.2       2 UNK         0.5016 
     61 O          35.0400  -49.4304  -51.8960 O.2       2 UNK        -0.5319 
     62 CA         32.9049  -49.8355  -50.8699 C.3       2 UNK         0.0286 
     63 CB         33.1542  -50.1916  -49.3954 C.3       2 UNK        -0.1963 
     64 N          32.5489  -48.4162  -50.9633 N.am      2 UNK        -0.4790 
     65 C          32.2668  -47.7387  -52.0868 C.2       1 UNK         0.5024 
     66 O          32.3734  -48.2020  -53.2264 O.2       1 UNK        -0.4888 
     67 H67        27.6242  -46.7118  -53.9316 H         1 UNK         0.0892 
     68 H68        28.0353  -45.0739  -53.4580 H         1 UNK         0.0892 
     69 H69        28.8969  -45.8604  -54.7989 H         1 UNK         0.0892 
     70 H70        30.8942  -45.2778  -53.5115 H         1 UNK         0.3107 
     71 H71        31.2735  -46.2845  -50.8893 H         1 UNK         0.0773 
     72 H72        33.6038  -45.4917  -51.1121 H         1 UNK         0.0680 
     73 H73        32.4266  -44.2834  -51.4973 H         1 UNK         0.0680 
     74 H74        33.8744  -42.7477  -54.4231 H         1 UNK         0.0650 
     75 H75        32.6818  -42.7438  -53.1536 H         1 UNK         0.0650 
     76 H76        33.3486  -44.3574  -56.4829 H         1 UNK         0.1397 
     77 H77        29.2684  -44.1140  -57.7652 H         1 UNK         0.1363 
     78 H78        30.3827  -42.6661  -53.8846 H         1 UNK         0.1355 
     79 H79        28.0079  -43.0369  -54.4831 H         1 UNK         0.0707 
     80 H80        27.5477  -43.6007  -56.0654 H         1 UNK         0.0707 
     81 H81        28.1844  -42.1928  -58.2033 H         1 UNK         0.1034 
     82 H82        28.3340  -40.4659  -58.2073 H         1 UNK         0.1034 
     83 H83        25.8521  -40.2487  -57.8783 H         1 UNK         0.0482 
     84 H84        24.4103  -41.8665  -60.1032 H         1 UNK         0.3460 
     85 H85        25.0845  -41.1437  -61.5426 H         1 UNK         0.3460 
     86 H86        24.5962  -41.9362  -57.2722 H         1 UNK         0.2989 
     87 H87        24.0571  -44.1101  -56.6274 H         1 UNK         0.0559 
     88 H88        22.7223  -43.2977  -58.5670 H         1 UNK         0.0848 
     89 H89        22.2818  -44.9512  -58.1858 H         1 UNK         0.0848 
     90 H90        23.3216  -44.6123  -59.5689 H         1 UNK         0.0848 
     91 H91        24.5824  -46.3911  -58.4113 H         1 UNK         0.3144 
     92 H92        25.1258  -48.4109  -57.2326 H         1 UNK         0.0727 
     93 H93        27.5454  -48.8363  -57.9212 H         1 UNK         0.0790 
     94 H94        27.9097  -47.1624  -57.4941 H         1 UNK         0.0790 
     95 H95        26.7950  -47.5138  -58.8022 H         1 UNK         0.0790 
     96 H96        27.3823  -48.4618  -55.3812 H         1 UNK         0.3215 
     97 H97        26.0382  -48.4970  -52.6122 H         1 UNK         0.0863 
     98 H98        25.7534  -50.7944  -51.6491 H         1 UNK         0.0808 
     99 H99        25.3189  -51.4033  -53.2465 H         1 UNK         0.0808 
    100 H100       24.2993  -50.2207  -52.4444 H         1 UNK         0.0808 
    101 H101       28.1582  -48.9972  -52.7818 H         1 UNK         0.3118 
    102 H102       29.9963  -50.0637  -52.9065 H         1 UNK         0.0546 
    103 H103       29.9995  -52.8658  -54.1342 H         1 UNK         0.0828 
    104 H104       29.6505  -52.4995  -52.4511 H         1 UNK         0.0828 
    105 H105       31.2486  -52.1754  -53.1018 H         1 UNK         0.0828 
    106 H106       31.3580  -50.7926  -55.0746 H         1 UNK         0.3005 
    107 H107       31.2675  -49.4727  -57.5031 H         1 UNK         0.1257 
    108 H108       30.1661  -47.2705  -57.6623 H         1 UNK         0.0775 
    109 H109       31.0715  -46.6814  -56.2889 H         1 UNK         0.0775 
    110 H110       32.4730  -44.3938  -59.1058 H         1 UNK         0.0840 
    111 H111       30.8600  -45.0505  -59.2399 H         1 UNK         0.0840 
    112 H112       32.7420  -48.6430  -55.0609 H         1 UNK         0.2987 
    113 H113       35.8797  -49.7310  -56.5213 H         1 UNK         0.0785 
    114 H114       35.4273  -47.2521  -56.4403 H         1 UNK         0.0798 
    115 H115       36.4447  -47.7969  -55.1149 H         1 UNK         0.0798 
    116 H116       34.7438  -47.4391  -54.8316 H         1 UNK         0.0798 
    117 H117       35.0388  -49.6145  -53.7672 H         1 UNK         0.3079 
    118 H118       34.6516  -53.1159  -53.3255 H         1 UNK         0.0794 
    119 H119       36.4049  -52.7340  -51.6038 H         1 UNK         0.0786 
    120 H120       36.9012  -51.2478  -52.4116 H         1 UNK         0.0786 
    121 H121       37.0957  -52.7947  -53.2173 H         1 UNK         0.0786 
    122 H122       33.2779  -52.0364  -52.0290 H         1 UNK         0.3032 
    123 H123       32.0381  -50.3988  -51.2220 H         1 UNK         0.1094 
    124 H124       33.9881  -49.6235  -48.9807 H         1 UNK         0.0794 
    125 H125       32.2743  -49.9941  -48.7827 H         1 UNK         0.0794 
    126 H126       33.3935  -51.2499  -49.2807 H         1 UNK         0.0794 
    127 H127       32.4574  -47.9314  -50.0825 H         1 UNK         0.3016 
@<TRIPOS>BOND
     1    1    2 1    
     2    1   67 1    
     3    1   68 1    
     4    1   69 1    
     5    2    3 2    
     6    2    4 am   BACKBONE|DICT|INTERRES
     7    4    5 1    
     8    4   70 1    
     9    5    6 1    
    10    5   65 1    
    11    5   71 1    
    12    6    7 1    
    13    6   72 1    
    14    6   73 1    
    15    7    8 1    
    16    8    9 1    
    17    8   74 1    
    18    8   75 1    
    19    9   10 ar   
    20    9   14 ar   
    21   10   11 ar   
    22   10   76 1    
    23   11   12 ar   
    24   11   48 1    
    25   12   13 ar   
    26   12   77 1    
    27   13   14 ar   
    28   13   15 1    
    29   14   78 1    
    30   15   16 1    
    31   15   79 1    
    32   15   80 1    
    33   16   17 1    
    34   17   18 1    
    35   17   81 1    
    36   17   82 1    
    37   18   19 1    
    38   18   22 1    
    39   18   83 1    
    40   19   20 am   BACKBONE|DICT|INTERRES
    41   19   21 2    
    42   20   84 1    
    43   20   85 1    
    44   22   23 am   BACKBONE|DICT|INTERRES
    45   22   86 1    
    46   23   24 2    
    47   23   25 1    
    48   25   26 1    
    49   25   27 1    
    50   25   87 1    
    51   26   88 1    
    52   26   89 1    
    53   26   90 1    
    54   27   28 am   BACKBONE|DICT|INTERRES
    55   27   91 1    
    56   28   29 2    
    57   28   30 1    
    58   30   31 1    
    59   30   32 1    
    60   30   92 1    
    61   31   93 1    
    62   31   94 1    
    63   31   95 1    
    64   32   33 am   BACKBONE|DICT|INTERRES
    65   32   96 1    
    66   33   34 2    
    67   33   35 1    
    68   35   36 1    
    69   35   37 1    
    70   35   97 1    
    71   36   98 1    
    72   36   99 1    
    73   36  100 1    
    74   37   38 am   BACKBONE|DICT|INTERRES
    75   37  101 1    
    76   38   39 2    
    77   38   40 1    
    78   40   41 1    
    79   40   42 1    
    80   40  102 1    
    81   41  103 1    
    82   41  104 1    
    83   41  105 1    
    84   42   43 am   BACKBONE|DICT|INTERRES
    85   42  106 1    
    86   43   44 2    
    87   43   45 1    
    88   45   46 1    
    89   45   49 1    
    90   45  107 1    
    91   46   47 1    
    92   46  108 1    
    93   46  109 1    
    94   47   48 1    
    95   48  110 1    
    96   48  111 1    
    97   49   50 am   BACKBONE|DICT|INTERRES
    98   49  112 1    
    99   50   51 2    
   100   50   52 1    
   101   52   53 1    
   102   52   54 1    
   103   52  113 1    
   104   53  114 1    
   105   53  115 1    
   106   53  116 1    
   107   54   55 am   BACKBONE|DICT|INTERRES
   108   54  117 1    
   109   55   56 2    
   110   55   57 1    
   111   57   58 1    
   112   57   59 1    
   113   57  118 1    
   114   58  119 1    
   115   58  120 1    
   116   58  121 1    
   117   59   60 am   BACKBONE|DICT|INTERRES
   118   59  122 1    
   119   60   61 2    
   120   60   62 1    
   121   62   63 1    
   122   62   64 1    
   123   62  123 1    
   124   63  124 1    
   125   63  125 1    
   126   63  126 1    
   127   64   65 am   BACKBONE|DICT|INTERRES
   128   64  127 1    
   129   65   66 2    
@<TRIPOS>SUBSTRUCTURE
     1 UNK         1 GROUP             0       ****    0 ROOT    
