@<TRIPOS>MOLECULE
3R134
127   129    1
SMALL
USER_CHARGES


@<TRIPOS>ATOM
      1 CA         34.1088  -46.6850  -57.9352 C.3       0 UNK        -0.1968 
      2 C          33.9988  -46.7738  -56.4215 C.2       0 UNK         0.4852 
      3 O          34.0361  -47.8772  -55.8779 O.2       0 UNK        -0.5359 
      4 N          33.8914  -45.6208  -55.7443 N.am      1 UNK        -0.4300 
      5 CA         33.6801  -45.4495  -54.2968 C.3       1 UNK         0.0863 
      6 C6         33.7626  -43.9573  -53.8817 C.3       11 UNK        -0.0953 
      7 S7         32.7027  -42.8558  -54.8784 S.3       11 UNK        -0.2369 
      8 C8         31.6285  -42.1200  -53.6081 C.3       11 UNK         0.0226 
      9 C9         30.5512  -43.0918  -53.1551 C.ar      11 UNK        -0.0699 
     10 C10        30.6250  -43.7101  -51.9046 C.ar      11 UNK        -0.0804 
     11 C11        29.6133  -44.5782  -51.4850 C.ar      11 UNK        -0.0871 
     12 C12        28.5348  -44.8392  -52.3382 C.ar      11 UNK        -0.1008 
     13 C13        28.4615  -44.2537  -53.6065 C.ar      11 UNK        -0.0735 
     14 C14        29.4664  -43.3580  -53.9930 C.ar      11 UNK        -0.0945 
     15 C15        27.2742  -44.6088  -54.5061 C.3       11 UNK         0.0169 
     16 S16        27.4096  -44.1008  -56.2579 S.3       11 UNK        -0.2669 
     17 C17        28.8107  -45.1240  -56.8359 C.3       11 UNK        -0.0850 
     18 CA         28.7462  -45.4060  -58.3587 C.3       10 UNK         0.0855 
     19 C          30.0377  -46.1237  -58.8367 C.2       10 UNK         0.5543 
     20 N          31.0108  -45.3754  -59.3385 N.am      10 UNK        -0.7343 
     21 O          30.1772  -47.3397  -58.7250 O.2       10 UNK        -0.5027 
     22 N          27.5265  -46.1411  -58.7171 N.am      10 UNK        -0.4495 
     23 C          27.1066  -46.3898  -59.9637 C.2       10 UNK         0.4903 
     24 O          27.6763  -45.9866  -60.9786 O.2       10 UNK        -0.4860 
     25 CA         25.8129  -47.2097  -60.1058 C.3       9 UNK         0.0227 
     26 CB         26.1021  -48.7113  -59.9532 C.3       9 UNK        -0.1964 
     27 N          24.7814  -46.8100  -59.1464 N.am      9 UNK        -0.4231 
     28 C          24.1223  -45.6443  -59.1568 C.2       9 UNK         0.5014 
     29 O          24.2741  -44.7857  -60.0270 O.2       9 UNK        -0.5270 
     30 CA         23.1272  -45.3678  -58.0110 C.3       8 UNK         0.0284 
     31 CB         21.7067  -45.8382  -58.3823 C.3       8 UNK        -0.1977 
     32 N          23.5424  -45.8747  -56.6930 N.am      8 UNK        -0.4342 
     33 C          23.6802  -47.1441  -56.2876 C.2       8 UNK         0.5039 
     34 O          23.4202  -48.1280  -56.9847 O.2       8 UNK        -0.5547 
     35 CA         24.2472  -47.3458  -54.8717 C.3       7 UNK         0.0281 
     36 CB         23.1241  -47.7185  -53.8910 C.3       7 UNK        -0.1963 
     37 N          25.2997  -48.3668  -54.8127 N.am      7 UNK        -0.4444 
     38 C          26.3929  -48.4131  -55.5863 C.2       7 UNK         0.5104 
     39 O          26.6483  -47.5955  -56.4701 O.2       7 UNK        -0.5100 
     40 CA         27.4035  -49.5289  -55.2808 C.3       6 UNK         0.0396 
     41 CB         28.0735  -50.0620  -56.5594 C.3       6 UNK        -0.1801 
     42 N          28.4398  -49.0313  -54.3785 N.am      6 UNK        -0.4747 
     43 C          28.2820  -48.7979  -53.0691 C.2       6 UNK         0.5012 
     44 O          27.2370  -49.0378  -52.4612 O.2       6 UNK        -0.5003 
     45 CA         29.5137  -48.2478  -52.3175 C.3       5 UNK         0.0782 
     46 C46        29.2000  -47.8865  -50.8432 C.3       11 UNK        -0.0868 
     47 S47        30.5005  -46.8346  -50.1185 S.3       11 UNK        -0.2515 
     48 C48        29.6781  -45.2082  -50.0994 C.3       11 UNK         0.0199 
     49 N          30.6128  -49.2134  -52.4100 N.am      5 UNK        -0.4607 
     50 C          31.4479  -49.3234  -53.4473 C.2       4 UNK         0.5031 
     51 O          31.4327  -48.5655  -54.4178 O.2       4 UNK        -0.5119 
     52 CA         32.3682  -50.5456  -53.4419 C.3       4 UNK         0.0263 
     53 CB         31.6704  -51.7269  -54.1473 C.3       4 UNK        -0.1967 
     54 N          33.6329  -50.2295  -54.1018 N.am      4 UNK        -0.4237 
     55 C          34.7464  -50.9678  -53.9922 C.2       3 UNK         0.4908 
     56 O          34.8195  -52.0062  -53.3331 O.2       3 UNK        -0.5102 
     57 CA         35.9998  -50.4595  -54.7151 C.3       3 UNK         0.0241 
     58 CB         35.8987  -50.6832  -56.2340 C.3       3 UNK        -0.1971 
     59 N          36.2233  -49.0443  -54.4253 N.am      3 UNK        -0.4139 
     60 C          36.9077  -48.5916  -53.3650 C.2       2 UNK         0.5016 
     61 O          37.4785  -49.3251  -52.5564 O.2       2 UNK        -0.5319 
     62 CA         36.9926  -47.0674  -53.1665 C.3       2 UNK         0.0286 
     63 CB         38.3508  -46.5381  -53.6557 C.3       2 UNK        -0.1963 
     64 N          35.9245  -46.3269  -53.8403 N.am      2 UNK        -0.4790 
     65 C          34.6530  -46.2651  -53.4182 C.2       1 UNK         0.5024 
     66 O          34.2444  -46.8127  -52.3941 O.2       1 UNK        -0.4888 
     67 H67        35.0631  -47.0938  -58.2661 H         1 UNK         0.0892 
     68 H68        33.3108  -47.2654  -58.3976 H         1 UNK         0.0892 
     69 H69        34.0349  -45.6576  -58.2911 H         1 UNK         0.0892 
     70 H70        33.8717  -44.7551  -56.2650 H         1 UNK         0.3107 
     71 H71        32.6720  -45.8123  -54.0834 H         1 UNK         0.0773 
     72 H72        33.5062  -43.8477  -52.8264 H         1 UNK         0.0680 
     73 H73        34.7857  -43.5884  -53.9797 H         1 UNK         0.0680 
     74 H74        31.1549  -41.2297  -54.0244 H         1 UNK         0.0650 
     75 H75        32.2316  -41.7770  -52.7659 H         1 UNK         0.0650 
     76 H76        31.4618  -43.5045  -51.2510 H         1 UNK         0.1397 
     77 H77        27.7458  -45.5046  -52.0167 H         1 UNK         0.1363 
     78 H78        29.4244  -42.8616  -54.9513 H         1 UNK         0.1355 
     79 H79        26.3781  -44.1487  -54.0881 H         1 UNK         0.0707 
     80 H80        27.1117  -45.6865  -54.4735 H         1 UNK         0.0707 
     81 H81        28.8344  -46.0613  -56.2764 H         1 UNK         0.1034 
     82 H82        29.7366  -44.6021  -56.5877 H         1 UNK         0.1034 
     83 H83        28.6910  -44.4439  -58.8723 H         1 UNK         0.0482 
     84 H84        31.8514  -45.8224  -59.6656 H         1 UNK         0.3460 
     85 H85        30.9036  -44.3776  -59.4348 H         1 UNK         0.3460 
     86 H86        27.0338  -46.5704  -57.9364 H         1 UNK         0.2989 
     87 H87        25.4191  -47.0416  -61.1104 H         1 UNK         0.0559 
     88 H88        26.8599  -49.0377  -60.6667 H         1 UNK         0.0848 
     89 H89        25.2081  -49.3088  -60.1322 H         1 UNK         0.0848 
     90 H90        26.4702  -48.9492  -58.9552 H         1 UNK         0.0848 
     91 H91        24.5579  -47.4600  -58.3968 H         1 UNK         0.3144 
     92 H92        23.0877  -44.2828  -57.8997 H         1 UNK         0.0727 
     93 H93        20.9883  -45.5856  -57.6024 H         1 UNK         0.0790 
     94 H94        21.6609  -46.9153  -58.5453 H         1 UNK         0.0790 
     95 H95        21.3684  -45.3594  -59.3021 H         1 UNK         0.0790 
     96 H96        23.8214  -45.1515  -56.0438 H         1 UNK         0.3215 
     97 H97        24.6963  -46.4085  -54.5381 H         1 UNK         0.0863 
     98 H98        23.4958  -47.7937  -52.8688 H         1 UNK         0.0808 
     99 H99        22.6626  -48.6717  -54.1529 H         1 UNK         0.0808 
    100 H100       22.3361  -46.9641  -53.8931 H         1 UNK         0.0808 
    101 H101       25.2098  -49.0628  -54.0861 H         1 UNK         0.3118 
    102 H102       26.8819  -50.3601  -54.8016 H         1 UNK         0.0546 
    103 H103       27.3301  -50.4669  -57.2466 H         1 UNK         0.0828 
    104 H104       28.7753  -50.8650  -56.3339 H         1 UNK         0.0828 
    105 H105       28.6203  -49.2810  -57.0908 H         1 UNK         0.0828 
    106 H106       29.3390  -48.8103  -54.7927 H         1 UNK         0.3005 
    107 H107       29.8029  -47.3294  -52.8346 H         1 UNK         0.1257 
    108 H108       29.1025  -48.7892  -50.2377 H         1 UNK         0.0775 
    109 H109       28.2432  -47.3710  -50.7515 H         1 UNK         0.0775 
    110 H110       28.6774  -45.2995  -49.6742 H         1 UNK         0.0840 
    111 H111       30.2272  -44.5520  -49.4223 H         1 UNK         0.0840 
    112 H112       30.6616  -49.8962  -51.6678 H         1 UNK         0.2987 
    113 H113       32.5775  -50.8147  -52.4041 H         1 UNK         0.0785 
    114 H114       32.2631  -52.6397  -54.0890 H         1 UNK         0.0798 
    115 H115       31.4904  -51.5119  -55.2015 H         1 UNK         0.0798 
    116 H116       30.7042  -51.9440  -53.6897 H         1 UNK         0.0798 
    117 H117       33.6357  -49.3769  -54.6618 H         1 UNK         0.3079 
    118 H118       36.8533  -51.0390  -54.3559 H         1 UNK         0.0794 
    119 H119       35.7803  -51.7434  -56.4612 H         1 UNK         0.0786 
    120 H120       36.7989  -50.3410  -56.7445 H         1 UNK         0.0786 
    121 H121       35.0474  -50.1622  -56.6725 H         1 UNK         0.0786 
    122 H122       35.7002  -48.3840  -54.9926 H         1 UNK         0.3032 
    123 H123       36.9182  -46.8781  -52.0929 H         1 UNK         0.1094 
    124 H124       38.4830  -46.6922  -54.7274 H         1 UNK         0.0794 
    125 H125       38.4589  -45.4725  -53.4522 H         1 UNK         0.0794 
    126 H126       39.1730  -47.0469  -53.1500 H         1 UNK         0.0794 
    127 H127       36.1676  -45.8490  -54.6965 H         1 UNK         0.3016 
@<TRIPOS>BOND
     1    1    2 1    
     2    1   67 1    
     3    1   68 1    
     4    1   69 1    
     5    2    3 2    
     6    2    4 am   BACKBONE|DICT|INTERRES
     7    4    5 1    
     8    4   70 1    
     9    5    6 1    
    10    5   65 1    
    11    5   71 1    
    12    6    7 1    
    13    6   72 1    
    14    6   73 1    
    15    7    8 1    
    16    8    9 1    
    17    8   74 1    
    18    8   75 1    
    19    9   10 ar   
    20    9   14 ar   
    21   10   11 ar   
    22   10   76 1    
    23   11   12 ar   
    24   11   48 1    
    25   12   13 ar   
    26   12   77 1    
    27   13   14 ar   
    28   13   15 1    
    29   14   78 1    
    30   15   16 1    
    31   15   79 1    
    32   15   80 1    
    33   16   17 1    
    34   17   18 1    
    35   17   81 1    
    36   17   82 1    
    37   18   19 1    
    38   18   22 1    
    39   18   83 1    
    40   19   20 am   BACKBONE|DICT|INTERRES
    41   19   21 2    
    42   20   84 1    
    43   20   85 1    
    44   22   23 am   BACKBONE|DICT|INTERRES
    45   22   86 1    
    46   23   24 2    
    47   23   25 1    
    48   25   26 1    
    49   25   27 1    
    50   25   87 1    
    51   26   88 1    
    52   26   89 1    
    53   26   90 1    
    54   27   28 am   BACKBONE|DICT|INTERRES
    55   27   91 1    
    56   28   29 2    
    57   28   30 1    
    58   30   31 1    
    59   30   32 1    
    60   30   92 1    
    61   31   93 1    
    62   31   94 1    
    63   31   95 1    
    64   32   33 am   BACKBONE|DICT|INTERRES
    65   32   96 1    
    66   33   34 2    
    67   33   35 1    
    68   35   36 1    
    69   35   37 1    
    70   35   97 1    
    71   36   98 1    
    72   36   99 1    
    73   36  100 1    
    74   37   38 am   BACKBONE|DICT|INTERRES
    75   37  101 1    
    76   38   39 2    
    77   38   40 1    
    78   40   41 1    
    79   40   42 1    
    80   40  102 1    
    81   41  103 1    
    82   41  104 1    
    83   41  105 1    
    84   42   43 am   BACKBONE|DICT|INTERRES
    85   42  106 1    
    86   43   44 2    
    87   43   45 1    
    88   45   46 1    
    89   45   49 1    
    90   45  107 1    
    91   46   47 1    
    92   46  108 1    
    93   46  109 1    
    94   47   48 1    
    95   48  110 1    
    96   48  111 1    
    97   49   50 am   BACKBONE|DICT|INTERRES
    98   49  112 1    
    99   50   51 2    
   100   50   52 1    
   101   52   53 1    
   102   52   54 1    
   103   52  113 1    
   104   53  114 1    
   105   53  115 1    
   106   53  116 1    
   107   54   55 am   BACKBONE|DICT|INTERRES
   108   54  117 1    
   109   55   56 2    
   110   55   57 1    
   111   57   58 1    
   112   57   59 1    
   113   57  118 1    
   114   58  119 1    
   115   58  120 1    
   116   58  121 1    
   117   59   60 am   BACKBONE|DICT|INTERRES
   118   59  122 1    
   119   60   61 2    
   120   60   62 1    
   121   62   63 1    
   122   62   64 1    
   123   62  123 1    
   124   63  124 1    
   125   63  125 1    
   126   63  126 1    
   127   64   65 am   BACKBONE|DICT|INTERRES
   128   64  127 1    
   129   65   66 2    
@<TRIPOS>SUBSTRUCTURE
     1 UNK         1 GROUP             0       ****    0 ROOT    
