@<TRIPOS>MOLECULE
3R134
127   129    1
SMALL
USER_CHARGES


@<TRIPOS>ATOM
      1 CA         31.3093  -47.9613  -48.1917 C.3       0 UNK        -0.1968 
      2 C          32.1764  -47.3797  -49.2980 C.2       0 UNK         0.4852 
      3 O          31.9792  -47.7292  -50.4612 O.2       0 UNK        -0.5359 
      4 N          33.1279  -46.5059  -48.9333 N.am      1 UNK        -0.4300 
      5 CA         34.0972  -45.8045  -49.7887 C.3       1 UNK         0.0863 
      6 C6         33.5666  -44.4589  -50.3758 C.3       11 UNK        -0.0953 
      7 S7         32.1289  -44.5678  -51.5004 S.3       11 UNK        -0.2369 
      8 C8         32.4610  -43.2271  -52.6856 C.3       11 UNK         0.0226 
      9 C9         31.7855  -43.5005  -54.0213 C.ar      11 UNK        -0.0699 
     10 C10        32.5498  -43.8776  -55.1286 C.ar      11 UNK        -0.0804 
     11 C11        31.9395  -44.1548  -56.3549 C.ar      11 UNK        -0.0871 
     12 C12        30.5512  -44.0443  -56.4731 C.ar      11 UNK        -0.1008 
     13 C13        29.7749  -43.6660  -55.3733 C.ar      11 UNK        -0.0735 
     14 C14        30.3982  -43.3878  -54.1523 C.ar      11 UNK        -0.0945 
     15 C15        28.2590  -43.6111  -55.4826 C.3       11 UNK         0.0169 
     16 S16        27.6706  -41.9865  -56.0522 S.3       11 UNK        -0.2669 
     17 C17        27.5372  -42.2299  -57.8594 C.3       11 UNK        -0.0850 
     18 CA         26.0596  -42.4284  -58.3133 C.3       10 UNK         0.0855 
     19 C          25.8637  -42.2777  -59.8543 C.2       10 UNK         0.5543 
     20 N          24.8864  -42.9411  -60.4596 N.am      10 UNK        -0.7343 
     21 O          26.5793  -41.5218  -60.5073 O.2       10 UNK        -0.5027 
     22 N          25.4457  -43.6288  -57.7110 N.am      10 UNK        -0.4495 
     23 C          25.7673  -44.9019  -57.9804 C.2       10 UNK         0.4903 
     24 O          26.5688  -45.2349  -58.8552 O.2       10 UNK        -0.4860 
     25 CA         25.1008  -45.9548  -57.0739 C.3       9 UNK         0.0227 
     26 CB         23.5603  -45.9373  -57.1848 C.3       9 UNK        -0.1964 
     27 N          25.6471  -47.3045  -57.2624 N.am      9 UNK        -0.4231 
     28 C          25.4711  -48.1465  -58.2935 C.2       9 UNK         0.5014 
     29 O          24.7198  -47.9295  -59.2460 O.2       9 UNK        -0.5270 
     30 CA         26.2660  -49.4700  -58.2752 C.3       8 UNK         0.0284 
     31 CB         27.3612  -49.4479  -59.3538 C.3       8 UNK        -0.1977 
     32 N          26.8732  -49.7859  -56.9771 N.am      8 UNK        -0.4342 
     33 C          26.1922  -50.1933  -55.8966 C.2       8 UNK         0.5039 
     34 O          24.9800  -50.4105  -55.8937 O.2       8 UNK        -0.5547 
     35 CA         26.9890  -50.3615  -54.5910 C.3       7 UNK         0.0281 
     36 CB         27.5331  -51.7940  -54.4736 C.3       7 UNK        -0.1963 
     37 N          28.0926  -49.4051  -54.4599 N.am      7 UNK        -0.4444 
     38 C          27.9420  -48.0773  -54.3381 C.2       7 UNK         0.5104 
     39 O          26.8490  -47.5133  -54.2878 O.2       7 UNK        -0.5100 
     40 CA         29.2247  -47.2301  -54.3452 C.3       6 UNK         0.0396 
     41 CB         29.9581  -47.3033  -52.9997 C.3       6 UNK        -0.1801 
     42 N          30.1257  -47.6142  -55.4330 N.am      6 UNK        -0.4747 
     43 C          29.8442  -47.4547  -56.7356 C.2       6 UNK         0.5012 
     44 O          28.8236  -46.9051  -57.1449 O.2       6 UNK        -0.5003 
     45 CA         30.8225  -48.0629  -57.7604 C.3       5 UNK         0.0782 
     46 C46        31.6716  -46.9992  -58.4993 C.3       11 UNK        -0.0868 
     47 S47        33.1003  -46.3632  -57.5597 S.3       11 UNK        -0.2515 
     48 C48        32.7908  -44.5686  -57.5448 C.3       11 UNK         0.0199 
     49 N          31.6211  -49.1558  -57.1963 N.am      5 UNK        -0.4607 
     50 C          31.1184  -50.3628  -56.9075 C.2       4 UNK         0.5031 
     51 O          29.9455  -50.6790  -57.1133 O.2       4 UNK        -0.5119 
     52 CA         32.0747  -51.3611  -56.2392 C.3       4 UNK         0.0263 
     53 CB         33.2628  -51.7046  -57.1538 C.3       4 UNK        -0.1967 
     54 N          32.5676  -50.8944  -54.9399 N.am      4 UNK        -0.4237 
     55 C          31.8080  -50.6597  -53.8626 C.2       3 UNK         0.4908 
     56 O          30.5794  -50.7180  -53.8688 O.2       3 UNK        -0.5102 
     57 CA         32.5273  -50.3070  -52.5503 C.3       3 UNK         0.0241 
     58 CB         33.3553  -51.4928  -52.0162 C.3       3 UNK        -0.1971 
     59 N          33.3162  -49.0706  -52.6026 N.am      3 UNK        -0.4139 
     60 C          34.4191  -48.8091  -53.3203 C.2       2 UNK         0.5016 
     61 O          34.9356  -49.6168  -54.0950 O.2       2 UNK        -0.5319 
     62 CA         35.0562  -47.4130  -53.1784 C.3       2 UNK         0.0286 
     63 CB         34.8979  -46.6226  -54.4841 C.3       2 UNK        -0.1963 
     64 N          34.5048  -46.6092  -52.0848 N.am      2 UNK        -0.4790 
     65 C          34.8132  -46.7433  -50.7898 C.2       1 UNK         0.5024 
     66 O          35.6258  -47.5676  -50.3669 O.2       1 UNK        -0.4888 
     67 H67        30.2622  -47.7219  -48.3745 H         1 UNK         0.0892 
     68 H68        31.4119  -49.0458  -48.1680 H         1 UNK         0.0892 
     69 H69        31.5803  -47.5723  -47.2104 H         1 UNK         0.0892 
     70 H70        33.2271  -46.3039  -47.9485 H         1 UNK         0.3107 
     71 H71        34.8912  -45.5167  -49.0975 H         1 UNK         0.0773 
     72 H72        34.3840  -43.9397  -50.8785 H         1 UNK         0.0680 
     73 H73        33.2771  -43.8032  -49.5535 H         1 UNK         0.0680 
     74 H74        33.5362  -43.1122  -52.8296 H         1 UNK         0.0650 
     75 H75        32.1012  -42.2838  -52.2726 H         1 UNK         0.0650 
     76 H76        33.6234  -43.9634  -55.0363 H         1 UNK         0.1397 
     77 H77        30.0712  -44.2750  -57.4138 H         1 UNK         0.1363 
     78 H78        29.8026  -43.1053  -53.2949 H         1 UNK         0.1355 
     79 H79        27.9057  -44.4020  -56.1440 H         1 UNK         0.0707 
     80 H80        27.8119  -43.8183  -54.5092 H         1 UNK         0.0707 
     81 H81        28.1579  -43.0661  -58.1828 H         1 UNK         0.1034 
     82 H82        27.9677  -41.3427  -58.3270 H         1 UNK         0.1034 
     83 H83        25.4925  -41.5911  -57.9048 H         1 UNK         0.0482 
     84 H84        24.2954  -43.5653  -59.9345 H         1 UNK         0.3460 
     85 H85        24.7548  -42.8330  -61.4529 H         1 UNK         0.3460 
     86 H86        24.7697  -43.4443  -56.9842 H         1 UNK         0.2989 
     87 H87        25.3615  -45.6878  -56.0485 H         1 UNK         0.0559 
     88 H88        23.1471  -44.9956  -56.8230 H         1 UNK         0.0848 
     89 H89        23.1113  -46.7318  -56.5886 H         1 UNK         0.0848 
     90 H90        23.2230  -46.0602  -58.2144 H         1 UNK         0.0848 
     91 H91        26.3261  -47.5783  -56.5634 H         1 UNK         0.3144 
     92 H92        25.5678  -50.2732  -58.5202 H         1 UNK         0.0727 
     93 H93        27.9835  -50.3425  -59.3185 H         1 UNK         0.0790 
     94 H94        28.0060  -48.5761  -59.2479 H         1 UNK         0.0790 
     95 H95        26.9196  -49.3980  -60.3499 H         1 UNK         0.0790 
     96 H96        27.8794  -49.6966  -56.9029 H         1 UNK         0.3215 
     97 H97        26.2996  -50.1888  -53.7617 H         1 UNK         0.0863 
     98 H98        28.0191  -51.9551  -53.5111 H         1 UNK         0.0808 
     99 H99        28.2616  -52.0135  -55.2554 H         1 UNK         0.0808 
    100 H100       26.7296  -52.5270  -54.5581 H         1 UNK         0.0808 
    101 H101       29.0317  -49.7987  -54.4466 H         1 UNK         0.3118 
    102 H102       28.9359  -46.1919  -54.5064 H         1 UNK         0.0546 
    103 H103       30.1843  -48.3271  -52.7059 H         1 UNK         0.0828 
    104 H104       29.3538  -46.8674  -52.2036 H         1 UNK         0.0828 
    105 H105       30.8961  -46.7502  -53.0309 H         1 UNK         0.0828 
    106 H106       30.9782  -48.0911  -55.1824 H         1 UNK         0.3005 
    107 H107       30.1855  -48.5105  -58.5254 H         1 UNK         0.1257 
    108 H108       32.0708  -47.4418  -59.4131 H         1 UNK         0.0775 
    109 H109       31.0407  -46.1747  -58.8362 H         1 UNK         0.0775 
    110 H110       33.7518  -44.0539  -57.4992 H         1 UNK         0.0840 
    111 H111       32.3304  -44.2516  -58.4818 H         1 UNK         0.0840 
    112 H112       32.5900  -48.9510  -56.9980 H         1 UNK         0.2987 
    113 H113       31.5104  -52.2796  -56.0643 H         1 UNK         0.0785 
    114 H114       33.8591  -52.5157  -56.7355 H         1 UNK         0.0798 
    115 H115       33.9243  -50.8508  -57.3053 H         1 UNK         0.0798 
    116 H116       32.9188  -52.0315  -58.1362 H         1 UNK         0.0798 
    117 H117       33.5671  -50.7319  -54.8418 H         1 UNK         0.3079 
    118 H118       31.7443  -50.1149  -51.8149 H         1 UNK         0.0794 
    119 H119       32.7335  -52.3823  -51.9071 H         1 UNK         0.0786 
    120 H120       33.7739  -51.2685  -51.0350 H         1 UNK         0.0786 
    121 H121       34.1807  -51.7548  -52.6784 H         1 UNK         0.0786 
    122 H122       32.9720  -48.3414  -51.9801 H         1 UNK         0.3032 
    123 H123       36.1224  -47.5664  -52.9964 H         1 UNK         0.1094 
    124 H124       33.8467  -46.4390  -54.7062 H         1 UNK         0.0794 
    125 H125       35.4079  -45.6606  -54.4329 H         1 UNK         0.0794 
    126 H126       35.3207  -47.1668  -55.3299 H         1 UNK         0.0794 
    127 H127       33.7847  -45.9377  -52.3216 H         1 UNK         0.3016 
@<TRIPOS>BOND
     1    1    2 1    
     2    1   67 1    
     3    1   68 1    
     4    1   69 1    
     5    2    3 2    
     6    2    4 am   BACKBONE|DICT|INTERRES
     7    4    5 1    
     8    4   70 1    
     9    5    6 1    
    10    5   65 1    
    11    5   71 1    
    12    6    7 1    
    13    6   72 1    
    14    6   73 1    
    15    7    8 1    
    16    8    9 1    
    17    8   74 1    
    18    8   75 1    
    19    9   10 ar   
    20    9   14 ar   
    21   10   11 ar   
    22   10   76 1    
    23   11   12 ar   
    24   11   48 1    
    25   12   13 ar   
    26   12   77 1    
    27   13   14 ar   
    28   13   15 1    
    29   14   78 1    
    30   15   16 1    
    31   15   79 1    
    32   15   80 1    
    33   16   17 1    
    34   17   18 1    
    35   17   81 1    
    36   17   82 1    
    37   18   19 1    
    38   18   22 1    
    39   18   83 1    
    40   19   20 am   BACKBONE|DICT|INTERRES
    41   19   21 2    
    42   20   84 1    
    43   20   85 1    
    44   22   23 am   BACKBONE|DICT|INTERRES
    45   22   86 1    
    46   23   24 2    
    47   23   25 1    
    48   25   26 1    
    49   25   27 1    
    50   25   87 1    
    51   26   88 1    
    52   26   89 1    
    53   26   90 1    
    54   27   28 am   BACKBONE|DICT|INTERRES
    55   27   91 1    
    56   28   29 2    
    57   28   30 1    
    58   30   31 1    
    59   30   32 1    
    60   30   92 1    
    61   31   93 1    
    62   31   94 1    
    63   31   95 1    
    64   32   33 am   BACKBONE|DICT|INTERRES
    65   32   96 1    
    66   33   34 2    
    67   33   35 1    
    68   35   36 1    
    69   35   37 1    
    70   35   97 1    
    71   36   98 1    
    72   36   99 1    
    73   36  100 1    
    74   37   38 am   BACKBONE|DICT|INTERRES
    75   37  101 1    
    76   38   39 2    
    77   38   40 1    
    78   40   41 1    
    79   40   42 1    
    80   40  102 1    
    81   41  103 1    
    82   41  104 1    
    83   41  105 1    
    84   42   43 am   BACKBONE|DICT|INTERRES
    85   42  106 1    
    86   43   44 2    
    87   43   45 1    
    88   45   46 1    
    89   45   49 1    
    90   45  107 1    
    91   46   47 1    
    92   46  108 1    
    93   46  109 1    
    94   47   48 1    
    95   48  110 1    
    96   48  111 1    
    97   49   50 am   BACKBONE|DICT|INTERRES
    98   49  112 1    
    99   50   51 2    
   100   50   52 1    
   101   52   53 1    
   102   52   54 1    
   103   52  113 1    
   104   53  114 1    
   105   53  115 1    
   106   53  116 1    
   107   54   55 am   BACKBONE|DICT|INTERRES
   108   54  117 1    
   109   55   56 2    
   110   55   57 1    
   111   57   58 1    
   112   57   59 1    
   113   57  118 1    
   114   58  119 1    
   115   58  120 1    
   116   58  121 1    
   117   59   60 am   BACKBONE|DICT|INTERRES
   118   59  122 1    
   119   60   61 2    
   120   60   62 1    
   121   62   63 1    
   122   62   64 1    
   123   62  123 1    
   124   63  124 1    
   125   63  125 1    
   126   63  126 1    
   127   64   65 am   BACKBONE|DICT|INTERRES
   128   64  127 1    
   129   65   66 2    
@<TRIPOS>SUBSTRUCTURE
     1 UNK         1 GROUP             0       ****    0 ROOT    
