@<TRIPOS>MOLECULE
3R134
127   129    1
SMALL
USER_CHARGES


@<TRIPOS>ATOM
      1 CA         30.9794  -48.1063  -49.2815 C.3       0 UNK        -0.1968 
      2 C          31.6670  -47.6244  -50.5499 C.2       0 UNK         0.4852 
      3 O          31.0343  -47.6109  -51.6058 O.2       0 UNK        -0.5359 
      4 N          32.9438  -47.2263  -50.4397 N.am      1 UNK        -0.4300 
      5 CA         33.8414  -46.7629  -51.5076 C.3       1 UNK         0.0863 
      6 C6         33.2574  -45.5778  -52.3289 C.3       11 UNK        -0.0953 
      7 S7         34.5330  -44.6227  -53.2253 S.3       11 UNK        -0.2369 
      8 C8         33.9461  -42.9070  -53.0403 C.3       11 UNK         0.0226 
      9 C9         32.5764  -42.7082  -53.6731 C.ar      11 UNK        -0.0699 
     10 C10        31.4456  -42.5572  -52.8665 C.ar      11 UNK        -0.0804 
     11 C11        30.1760  -42.4431  -53.4403 C.ar      11 UNK        -0.0871 
     12 C12        30.0446  -42.4513  -54.8312 C.ar      11 UNK        -0.1008 
     13 C13        31.1659  -42.6204  -55.6465 C.ar      11 UNK        -0.0735 
     14 C14        32.4328  -42.7224  -55.0636 C.ar      11 UNK        -0.0945 
     15 C15        30.9932  -42.7746  -57.1479 C.3       11 UNK         0.0169 
     16 S16        30.3101  -44.4196  -57.5267 S.3       11 UNK        -0.2669 
     17 C17        30.6544  -44.5648  -59.3121 C.3       11 UNK        -0.0850 
     18 CA         29.4440  -45.0945  -60.1217 C.3       10 UNK         0.0855 
     19 C          29.7736  -45.0801  -61.6445 C.2       10 UNK         0.5543 
     20 N          29.9188  -46.2218  -62.3064 N.am      10 UNK        -0.7343 
     21 O          29.9003  -44.0093  -62.2332 O.2       10 UNK        -0.5027 
     22 N          28.9584  -46.3845  -59.5960 N.am      10 UNK        -0.4495 
     23 C          27.7891  -46.9495  -59.9247 C.2       10 UNK         0.4903 
     24 O          26.9839  -46.4439  -60.7073 O.2       10 UNK        -0.4860 
     25 CA         27.4609  -48.3074  -59.2797 C.3       9 UNK         0.0227 
     26 CB         28.6970  -49.2046  -59.0908 C.3       9 UNK        -0.1964 
     27 N          26.7861  -48.1311  -57.9937 N.am      9 UNK        -0.4231 
     28 C          25.4942  -47.7965  -57.8494 C.2       9 UNK         0.5014 
     29 O          24.7248  -47.6030  -58.7932 O.2       9 UNK        -0.5270 
     30 CA         24.9699  -47.6888  -56.4032 C.3       8 UNK         0.0284 
     31 CB         23.4349  -47.5481  -56.3171 C.3       8 UNK        -0.1977 
     32 N          25.4390  -48.7867  -55.5516 N.am      8 UNK        -0.4342 
     33 C          25.2614  -50.1053  -55.7346 C.2       8 UNK         0.5039 
     34 O          24.5657  -50.5883  -56.6288 O.2       8 UNK        -0.5547 
     35 CA         26.0124  -51.0611  -54.7882 C.3       7 UNK         0.0281 
     36 CB         27.0635  -51.8575  -55.5796 C.3       7 UNK        -0.1963 
     37 N          26.6799  -50.3584  -53.6885 N.am      7 UNK        -0.4444 
     38 C          26.1193  -50.0967  -52.4996 C.2       7 UNK         0.5104 
     39 O          25.0024  -50.4925  -52.1658 O.2       7 UNK        -0.5100 
     40 CA         26.9303  -49.2207  -51.5243 C.3       6 UNK         0.0396 
     41 CB         27.7528  -50.0987  -50.5686 C.3       6 UNK        -0.1801 
     42 N          27.8213  -48.2592  -52.1836 N.am      6 UNK        -0.4747 
     43 C          27.4268  -47.2714  -53.0037 C.2       6 UNK         0.5012 
     44 O          26.2527  -47.0603  -53.3033 O.2       6 UNK        -0.5003 
     45 CA         28.5429  -46.4272  -53.6468 C.3       5 UNK         0.0782 
     46 C46        28.9626  -45.2708  -52.7039 C.3       11 UNK        -0.0868 
     47 S47        27.8377  -43.8347  -52.8433 S.3       11 UNK        -0.2515 
     48 C48        28.9399  -42.4067  -52.5540 C.3       11 UNK         0.0199 
     49 N          29.6826  -47.2722  -54.0163 N.am      5 UNK        -0.4607 
     50 C          29.6613  -48.2331  -54.9485 C.2       4 UNK         0.5031 
     51 O          28.7046  -48.4374  -55.7018 O.2       4 UNK        -0.5119 
     52 CA         30.9005  -49.1454  -54.9749 C.3       4 UNK         0.0263 
     53 CB         30.7189  -50.4184  -55.8251 C.3       4 UNK        -0.1967 
     54 N          32.1228  -48.4313  -55.3514 N.am      4 UNK        -0.4237 
     55 C          32.4137  -47.8493  -56.5275 C.2       3 UNK         0.4908 
     56 O          31.6433  -47.8129  -57.4871 O.2       3 UNK        -0.5102 
     57 CA         33.8071  -47.2004  -56.6797 C.3       3 UNK         0.0241 
     58 CB         33.6801  -45.6816  -56.8604 C.3       3 UNK        -0.1971 
     59 N          34.6985  -47.4510  -55.5466 N.am      3 UNK        -0.4139 
     60 C          35.3667  -48.5894  -55.3131 C.2       2 UNK         0.5016 
     61 O          35.3880  -49.5455  -56.0879 O.2       2 UNK        -0.5319 
     62 CA         36.1065  -48.6868  -53.9634 C.3       2 UNK         0.0286 
     63 CB         37.5999  -48.3707  -54.1429 C.3       2 UNK        -0.1963 
     64 N          35.5454  -47.8025  -52.9321 N.am      2 UNK        -0.4790 
     65 C          34.3102  -47.9167  -52.4223 C.2       1 UNK         0.5024 
     66 O          33.5531  -48.8434  -52.7162 O.2       1 UNK        -0.4888 
     67 H67        30.7556  -49.1696  -49.3607 H         1 UNK         0.0892 
     68 H68        31.5977  -47.9532  -48.3973 H         1 UNK         0.0892 
     69 H69        30.0427  -47.5689  -49.1365 H         1 UNK         0.0892 
     70 H70        33.3826  -47.2935  -49.5318 H         1 UNK         0.3107 
     71 H71        34.7225  -46.3975  -50.9772 H         1 UNK         0.0773 
     72 H72        32.5076  -45.9167  -53.0463 H         1 UNK         0.0680 
     73 H73        32.7376  -44.8976  -51.6532 H         1 UNK         0.0680 
     74 H74        34.6633  -42.2350  -53.5133 H         1 UNK         0.0650 
     75 H75        33.9305  -42.6445  -51.9813 H         1 UNK         0.0650 
     76 H76        31.5503  -42.5717  -51.7902 H         1 UNK         0.1397 
     77 H77        29.0610  -42.3982  -55.2781 H         1 UNK         0.1363 
     78 H78        33.3049  -42.8624  -55.6874 H         1 UNK         0.1355 
     79 H79        30.3272  -42.0011  -57.5330 H         1 UNK         0.0707 
     80 H80        31.9519  -42.6494  -57.6538 H         1 UNK         0.0707 
     81 H81        30.9644  -43.5899  -59.6938 H         1 UNK         0.1034 
     82 H82        31.5110  -45.2278  -59.4433 H         1 UNK         0.1034 
     83 H83        28.6297  -44.3793  -59.9890 H         1 UNK         0.0482 
     84 H84        29.8163  -47.1031  -61.8301 H         1 UNK         0.3460 
     85 H85        30.1296  -46.1998  -63.2917 H         1 UNK         0.3460 
     86 H86        29.5645  -46.8476  -58.9320 H         1 UNK         0.2989 
     87 H87        26.7833  -48.8318  -59.9570 H         1 UNK         0.0559 
     88 H88        29.3899  -48.7926  -58.3592 H         1 UNK         0.0848 
     89 H89        29.2412  -49.3308  -60.0276 H         1 UNK         0.0848 
     90 H90        28.4113  -50.1988  -58.7469 H         1 UNK         0.0848 
     91 H91        27.3581  -48.2532  -57.1614 H         1 UNK         0.3144 
     92 H92        25.4059  -46.7769  -55.9924 H         1 UNK         0.0727 
     93 H93        23.1051  -47.4451  -55.2833 H         1 UNK         0.0790 
     94 H94        23.0926  -46.6634  -56.8553 H         1 UNK         0.0790 
     95 H95        22.9241  -48.4095  -56.7485 H         1 UNK         0.0790 
     96 H96        25.9860  -48.4898  -54.7519 H         1 UNK         0.3215 
     97 H97        25.2839  -51.7666  -54.3822 H         1 UNK         0.0863 
     98 H98        27.6648  -52.4918  -54.9281 H         1 UNK         0.0808 
     99 H99        27.7333  -51.1968  -56.1307 H         1 UNK         0.0808 
    100 H100       26.5843  -52.5086  -56.3119 H         1 UNK         0.0808 
    101 H101       27.5972  -49.9824  -53.8806 H         1 UNK         0.3118 
    102 H102       26.2143  -48.6492  -50.9302 H         1 UNK         0.0546 
    103 H103       28.5309  -50.6528  -51.0951 H         1 UNK         0.0828 
    104 H104       27.1179  -50.8281  -50.0635 H         1 UNK         0.0828 
    105 H105       28.2305  -49.4999  -49.7936 H         1 UNK         0.0828 
    106 H106       28.8122  -48.3409  -51.9890 H         1 UNK         0.3005 
    107 H107       28.1517  -46.0052  -54.5759 H         1 UNK         0.1257 
    108 H108       29.9755  -44.9623  -52.9580 H         1 UNK         0.0775 
    109 H109       29.0161  -45.5884  -51.6604 H         1 UNK         0.0775 
    110 H110       28.3878  -41.4855  -52.7447 H         1 UNK         0.0840 
    111 H111       29.2168  -42.3869  -51.4988 H         1 UNK         0.0840 
    112 H112       30.4600  -47.2554  -53.3600 H         1 UNK         0.2987 
    113 H113       31.0581  -49.4746  -53.9461 H         1 UNK         0.0785 
    114 H114       29.9131  -51.0342  -55.4288 H         1 UNK         0.0798 
    115 H115       31.6210  -51.0300  -55.8159 H         1 UNK         0.0798 
    116 H116       30.4828  -50.1915  -56.8637 H         1 UNK         0.0798 
    117 H117       32.8258  -48.4055  -54.6218 H         1 UNK         0.3079 
    118 H118       34.2663  -47.6168  -57.5787 H         1 UNK         0.0794 
    119 H119       34.6546  -45.1950  -56.9047 H         1 UNK         0.0786 
    120 H120       33.1132  -45.2361  -56.0432 H         1 UNK         0.0786 
    121 H121       33.1602  -45.4435  -57.7870 H         1 UNK         0.0786 
    122 H122       34.7611  -46.7170  -54.8545 H         1 UNK         0.3032 
    123 H123       36.0099  -49.7179  -53.6151 H         1 UNK         0.1094 
    124 H124       37.7593  -47.3446  -54.4768 H         1 UNK         0.0794 
    125 H125       38.1506  -48.5120  -53.2127 H         1 UNK         0.0794 
    126 H126       38.0510  -49.0291  -54.8869 H         1 UNK         0.0794 
    127 H127       36.1105  -47.0091  -52.6610 H         1 UNK         0.3016 
@<TRIPOS>BOND
     1    1    2 1    
     2    1   67 1    
     3    1   68 1    
     4    1   69 1    
     5    2    3 2    
     6    2    4 am   BACKBONE|DICT|INTERRES
     7    4    5 1    
     8    4   70 1    
     9    5    6 1    
    10    5   65 1    
    11    5   71 1    
    12    6    7 1    
    13    6   72 1    
    14    6   73 1    
    15    7    8 1    
    16    8    9 1    
    17    8   74 1    
    18    8   75 1    
    19    9   10 ar   
    20    9   14 ar   
    21   10   11 ar   
    22   10   76 1    
    23   11   12 ar   
    24   11   48 1    
    25   12   13 ar   
    26   12   77 1    
    27   13   14 ar   
    28   13   15 1    
    29   14   78 1    
    30   15   16 1    
    31   15   79 1    
    32   15   80 1    
    33   16   17 1    
    34   17   18 1    
    35   17   81 1    
    36   17   82 1    
    37   18   19 1    
    38   18   22 1    
    39   18   83 1    
    40   19   20 am   BACKBONE|DICT|INTERRES
    41   19   21 2    
    42   20   84 1    
    43   20   85 1    
    44   22   23 am   BACKBONE|DICT|INTERRES
    45   22   86 1    
    46   23   24 2    
    47   23   25 1    
    48   25   26 1    
    49   25   27 1    
    50   25   87 1    
    51   26   88 1    
    52   26   89 1    
    53   26   90 1    
    54   27   28 am   BACKBONE|DICT|INTERRES
    55   27   91 1    
    56   28   29 2    
    57   28   30 1    
    58   30   31 1    
    59   30   32 1    
    60   30   92 1    
    61   31   93 1    
    62   31   94 1    
    63   31   95 1    
    64   32   33 am   BACKBONE|DICT|INTERRES
    65   32   96 1    
    66   33   34 2    
    67   33   35 1    
    68   35   36 1    
    69   35   37 1    
    70   35   97 1    
    71   36   98 1    
    72   36   99 1    
    73   36  100 1    
    74   37   38 am   BACKBONE|DICT|INTERRES
    75   37  101 1    
    76   38   39 2    
    77   38   40 1    
    78   40   41 1    
    79   40   42 1    
    80   40  102 1    
    81   41  103 1    
    82   41  104 1    
    83   41  105 1    
    84   42   43 am   BACKBONE|DICT|INTERRES
    85   42  106 1    
    86   43   44 2    
    87   43   45 1    
    88   45   46 1    
    89   45   49 1    
    90   45  107 1    
    91   46   47 1    
    92   46  108 1    
    93   46  109 1    
    94   47   48 1    
    95   48  110 1    
    96   48  111 1    
    97   49   50 am   BACKBONE|DICT|INTERRES
    98   49  112 1    
    99   50   51 2    
   100   50   52 1    
   101   52   53 1    
   102   52   54 1    
   103   52  113 1    
   104   53  114 1    
   105   53  115 1    
   106   53  116 1    
   107   54   55 am   BACKBONE|DICT|INTERRES
   108   54  117 1    
   109   55   56 2    
   110   55   57 1    
   111   57   58 1    
   112   57   59 1    
   113   57  118 1    
   114   58  119 1    
   115   58  120 1    
   116   58  121 1    
   117   59   60 am   BACKBONE|DICT|INTERRES
   118   59  122 1    
   119   60   61 2    
   120   60   62 1    
   121   62   63 1    
   122   62   64 1    
   123   62  123 1    
   124   63  124 1    
   125   63  125 1    
   126   63  126 1    
   127   64   65 am   BACKBONE|DICT|INTERRES
   128   64  127 1    
   129   65   66 2    
@<TRIPOS>SUBSTRUCTURE
     1 UNK         1 GROUP             0       ****    0 ROOT    
