@<TRIPOS>MOLECULE
3R134
127   129    1
SMALL
USER_CHARGES


@<TRIPOS>ATOM
      1 CA         35.4084  -47.2802  -54.9307 C.3       0 UNK        -0.1968 
      2 C          34.2195  -46.9970  -54.0257 C.2       0 UNK         0.4852 
      3 O          33.1763  -47.6409  -54.1465 O.2       0 UNK        -0.5359 
      4 N          34.3695  -46.0441  -53.0976 N.am      1 UNK        -0.4300 
      5 CA         33.3448  -45.7004  -52.1023 C.3       1 UNK         0.0863 
      6 C6         33.6652  -44.3925  -51.3407 C.3       11 UNK        -0.0953 
      7 S7         34.1336  -43.0093  -52.4371 S.3       11 UNK        -0.2369 
      8 C8         32.5244  -42.2487  -52.8368 C.3       11 UNK         0.0226 
      9 C9         31.7949  -42.8991  -54.0120 C.ar      11 UNK        -0.0699 
     10 C10        32.4670  -43.2158  -55.1997 C.ar      11 UNK        -0.0804 
     11 C11        31.7747  -43.7243  -56.3053 C.ar      11 UNK        -0.0871 
     12 C12        30.3907  -43.9117  -56.2146 C.ar      11 UNK        -0.1008 
     13 C13        29.7039  -43.5916  -55.0400 C.ar      11 UNK        -0.0735 
     14 C14        30.4128  -43.0972  -53.9411 C.ar      11 UNK        -0.0945 
     15 C15        28.1945  -43.7654  -54.9536 C.3       11 UNK         0.0169 
     16 S16        27.3069  -42.2503  -55.4305 S.3       11 UNK        -0.2669 
     17 C17        27.1019  -42.4867  -57.2316 C.3       11 UNK        -0.0850 
     18 CA         25.6830  -42.9995  -57.6012 C.3       10 UNK         0.0855 
     19 C          25.4471  -42.9903  -59.1413 C.2       10 UNK         0.5543 
     20 N          25.0005  -44.0756  -59.7640 N.am      10 UNK        -0.7343 
     21 O          25.6644  -41.9681  -59.7871 O.2       10 UNK        -0.5027 
     22 N          25.3970  -44.2951  -56.9656 N.am      10 UNK        -0.4495 
     23 C          24.1926  -44.7071  -56.5554 C.2       10 UNK         0.4903 
     24 O          23.1746  -44.0147  -56.6074 O.2       10 UNK        -0.4860 
     25 CA         24.1265  -46.1447  -56.0000 C.3       9 UNK         0.0227 
     26 CB         22.6890  -46.7047  -55.9579 C.3       9 UNK        -0.1964 
     27 N          25.0260  -47.0807  -56.6910 N.am      9 UNK        -0.4231 
     28 C          25.0239  -47.3886  -58.0003 C.2       9 UNK         0.5014 
     29 O          24.2641  -46.8666  -58.8177 O.2       9 UNK        -0.5270 
     30 CA         26.0552  -48.4152  -58.5110 C.3       8 UNK         0.0284 
     31 CB         27.0219  -47.7513  -59.5071 C.3       8 UNK        -0.1977 
     32 N          26.8249  -49.0544  -57.4392 N.am      8 UNK        -0.4342 
     33 C          26.3575  -50.0370  -56.6523 C.2       8 UNK         0.5039 
     34 O          25.2591  -50.5691  -56.8175 O.2       8 UNK        -0.5547 
     35 CA         27.2291  -50.4937  -55.4631 C.3       7 UNK         0.0281 
     36 CB         27.9085  -51.8354  -55.7810 C.3       7 UNK        -0.1963 
     37 N          28.2482  -49.5266  -55.0410 N.am      7 UNK        -0.4444 
     38 C          28.0034  -48.2786  -54.6145 C.2       7 UNK         0.5104 
     39 O          26.8701  -47.8167  -54.4769 O.2       7 UNK        -0.5100 
     40 CA         29.2157  -47.3590  -54.3805 C.3       6 UNK         0.0396 
     41 CB         29.6361  -47.3648  -52.9074 C.3       6 UNK        -0.1801 
     42 N          30.3770  -47.6233  -55.2386 N.am      6 UNK        -0.4747 
     43 C          30.3557  -47.6535  -56.5829 C.2       6 UNK         0.5012 
     44 O          29.3360  -47.4857  -57.2514 O.2       6 UNK        -0.5003 
     45 CA         31.6726  -48.0175  -57.2873 C.3       5 UNK         0.0782 
     46 C46        32.6273  -46.7979  -57.3965 C.3       11 UNK        -0.0868 
     47 S47        32.0078  -45.4912  -58.5054 S.3       11 UNK        -0.2515 
     48 C48        32.5268  -43.9853  -57.6108 C.3       11 UNK         0.0199 
     49 N          32.2178  -49.1581  -56.5531 N.am      5 UNK        -0.4607 
     50 C          33.3408  -49.8477  -56.7384 C.2       4 UNK         0.5031 
     51 O          34.1449  -49.6067  -57.6395 O.2       4 UNK        -0.5119 
     52 CA         33.5998  -51.0268  -55.7650 C.3       4 UNK         0.0263 
     53 CB         35.0961  -51.3776  -55.6652 C.3       4 UNK        -0.1967 
     54 N          33.0633  -50.8924  -54.3970 N.am      4 UNK        -0.4237 
     55 C          31.7783  -50.8821  -54.0184 C.2       3 UNK         0.4908 
     56 O          30.8392  -50.8155  -54.8118 O.2       3 UNK        -0.5102 
     57 CA         31.4564  -50.9686  -52.5143 C.3       3 UNK         0.0241 
     58 CB         31.5333  -52.4287  -52.0279 C.3       3 UNK        -0.1971 
     59 N          32.2143  -50.0689  -51.6307 N.am      3 UNK        -0.4139 
     60 C          33.5229  -50.0713  -51.3447 C.2       2 UNK         0.5016 
     61 O          34.3470  -50.8099  -51.8886 O.2       2 UNK        -0.5319 
     62 CA         33.9846  -49.0400  -50.2976 C.3       2 UNK         0.0286 
     63 CB         35.3426  -49.4080  -49.6718 C.3       2 UNK        -0.1963 
     64 N          34.0963  -47.7294  -50.9305 N.am      2 UNK        -0.4790 
     65 C          33.0854  -46.8684  -51.1207 C.2       1 UNK         0.5024 
     66 O          31.9779  -47.0001  -50.5994 O.2       1 UNK        -0.4888 
     67 H67        35.8922  -48.2073  -54.6266 H         1 UNK         0.0892 
     68 H68        36.1472  -46.4800  -54.8908 H         1 UNK         0.0892 
     69 H69        35.0884  -47.3897  -55.9647 H         1 UNK         0.0892 
     70 H70        35.2268  -45.5118  -53.0484 H         1 UNK         0.3107 
     71 H71        32.4165  -45.5349  -52.6521 H         1 UNK         0.0773 
     72 H72        34.4960  -44.5507  -50.6503 H         1 UNK         0.0680 
     73 H73        32.8157  -44.0911  -50.7251 H         1 UNK         0.0680 
     74 H74        31.8991  -42.2413  -51.9428 H         1 UNK         0.0650 
     75 H75        32.6998  -41.2028  -53.0914 H         1 UNK         0.0650 
     76 H76        33.5308  -43.0360  -55.2717 H         1 UNK         0.1397 
     77 H77        29.8449  -44.2920  -57.0663 H         1 UNK         0.1363 
     78 H78        29.8776  -42.8346  -53.0387 H         1 UNK         0.1355 
     79 H79        27.9123  -44.0300  -53.9333 H         1 UNK         0.0707 
     80 H80        27.8676  -44.5935  -55.5824 H         1 UNK         0.0707 
     81 H81        27.8686  -43.1586  -57.6180 H         1 UNK         0.1034 
     82 H82        27.2908  -41.5204  -57.7032 H         1 UNK         0.1034 
     83 H83        24.9738  -42.2699  -57.2053 H         1 UNK         0.0482 
     84 H84        24.8517  -44.0394  -60.7597 H         1 UNK         0.3460 
     85 H85        24.7763  -44.9234  -59.2562 H         1 UNK         0.3460 
     86 H86        26.1660  -44.9445  -56.9124 H         1 UNK         0.2989 
     87 H87        24.4865  -46.0863  -54.9717 H         1 UNK         0.0559 
     88 H88        22.0444  -46.0850  -55.3333 H         1 UNK         0.0848 
     89 H89        22.6679  -47.7122  -55.5425 H         1 UNK         0.0848 
     90 H90        22.2403  -46.7420  -56.9512 H         1 UNK         0.0848 
     91 H91        25.7088  -47.5345  -56.0907 H         1 UNK         0.3144 
     92 H92        25.5018  -49.1894  -59.0467 H         1 UNK         0.0727 
     93 H93        27.7783  -48.4529  -59.8591 H         1 UNK         0.0790 
     94 H94        27.5349  -46.8962  -59.0658 H         1 UNK         0.0790 
     95 H95        26.4865  -47.3861  -60.3846 H         1 UNK         0.0790 
     96 H96        27.7393  -48.6537  -57.2455 H         1 UNK         0.3215 
     97 H97        26.5557  -50.6446  -54.6168 H         1 UNK         0.0863 
     98 H98        28.4270  -52.2338  -54.9087 H         1 UNK         0.0808 
     99 H99        28.6368  -51.7365  -56.5870 H         1 UNK         0.0808 
    100 H100       27.1770  -52.5836  -56.0900 H         1 UNK         0.0808 
    101 H101       29.2130  -49.8432  -55.0900 H         1 UNK         0.3118 
    102 H102       28.8831  -46.3522  -54.6162 H         1 UNK         0.0546 
    103 H103       28.7754  -47.2428  -52.2483 H         1 UNK         0.0828 
    104 H104       30.3148  -46.5403  -52.6976 H         1 UNK         0.0828 
    105 H105       30.1336  -48.2921  -52.6312 H         1 UNK         0.0828 
    106 H106       31.2794  -47.7219  -54.7776 H         1 UNK         0.3005 
    107 H107       31.4310  -48.3673  -58.2929 H         1 UNK         0.1257 
    108 H108       33.5965  -47.1027  -57.7891 H         1 UNK         0.0775 
    109 H109       32.8154  -46.3698  -56.4132 H         1 UNK         0.0775 
    110 H110       33.6013  -44.0456  -57.4298 H         1 UNK         0.0840 
    111 H111       32.3760  -43.1272  -58.2668 H         1 UNK         0.0840 
    112 H112       31.6115  -49.5124  -55.8180 H         1 UNK         0.2987 
    113 H113       33.0966  -51.8861  -56.2123 H         1 UNK         0.0785 
    114 H114       35.6700  -50.5598  -55.2295 H         1 UNK         0.0798 
    115 H115       35.5221  -51.5920  -56.6463 H         1 UNK         0.0798 
    116 H116       35.2557  -52.2630  -55.0494 H         1 UNK         0.0798 
    117 H117       33.7456  -50.8924  -53.6414 H         1 UNK         0.3079 
    118 H118       30.4148  -50.6606  -52.4112 H         1 UNK         0.0794 
    119 H119       32.5460  -52.8285  -52.0900 H         1 UNK         0.0786 
    120 H120       30.8937  -53.0742  -52.6317 H         1 UNK         0.0786 
    121 H121       31.2000  -52.5201  -50.9941 H         1 UNK         0.0786 
    122 H122       31.6591  -49.3565  -51.1743 H         1 UNK         0.3032 
    123 H123       33.2426  -49.0066  -49.4960 H         1 UNK         0.1094 
    124 H124       35.3005  -50.3920  -49.2028 H         1 UNK         0.0794 
    125 H125       36.1410  -49.4350  -50.4146 H         1 UNK         0.0794 
    126 H126       35.6286  -48.6936  -48.8996 H         1 UNK         0.0794 
    127 H127       34.9574  -47.5498  -51.4263 H         1 UNK         0.3016 
@<TRIPOS>BOND
     1    1    2 1    
     2    1   67 1    
     3    1   68 1    
     4    1   69 1    
     5    2    3 2    
     6    2    4 am   BACKBONE|DICT|INTERRES
     7    4    5 1    
     8    4   70 1    
     9    5    6 1    
    10    5   65 1    
    11    5   71 1    
    12    6    7 1    
    13    6   72 1    
    14    6   73 1    
    15    7    8 1    
    16    8    9 1    
    17    8   74 1    
    18    8   75 1    
    19    9   10 ar   
    20    9   14 ar   
    21   10   11 ar   
    22   10   76 1    
    23   11   12 ar   
    24   11   48 1    
    25   12   13 ar   
    26   12   77 1    
    27   13   14 ar   
    28   13   15 1    
    29   14   78 1    
    30   15   16 1    
    31   15   79 1    
    32   15   80 1    
    33   16   17 1    
    34   17   18 1    
    35   17   81 1    
    36   17   82 1    
    37   18   19 1    
    38   18   22 1    
    39   18   83 1    
    40   19   20 am   BACKBONE|DICT|INTERRES
    41   19   21 2    
    42   20   84 1    
    43   20   85 1    
    44   22   23 am   BACKBONE|DICT|INTERRES
    45   22   86 1    
    46   23   24 2    
    47   23   25 1    
    48   25   26 1    
    49   25   27 1    
    50   25   87 1    
    51   26   88 1    
    52   26   89 1    
    53   26   90 1    
    54   27   28 am   BACKBONE|DICT|INTERRES
    55   27   91 1    
    56   28   29 2    
    57   28   30 1    
    58   30   31 1    
    59   30   32 1    
    60   30   92 1    
    61   31   93 1    
    62   31   94 1    
    63   31   95 1    
    64   32   33 am   BACKBONE|DICT|INTERRES
    65   32   96 1    
    66   33   34 2    
    67   33   35 1    
    68   35   36 1    
    69   35   37 1    
    70   35   97 1    
    71   36   98 1    
    72   36   99 1    
    73   36  100 1    
    74   37   38 am   BACKBONE|DICT|INTERRES
    75   37  101 1    
    76   38   39 2    
    77   38   40 1    
    78   40   41 1    
    79   40   42 1    
    80   40  102 1    
    81   41  103 1    
    82   41  104 1    
    83   41  105 1    
    84   42   43 am   BACKBONE|DICT|INTERRES
    85   42  106 1    
    86   43   44 2    
    87   43   45 1    
    88   45   46 1    
    89   45   49 1    
    90   45  107 1    
    91   46   47 1    
    92   46  108 1    
    93   46  109 1    
    94   47   48 1    
    95   48  110 1    
    96   48  111 1    
    97   49   50 am   BACKBONE|DICT|INTERRES
    98   49  112 1    
    99   50   51 2    
   100   50   52 1    
   101   52   53 1    
   102   52   54 1    
   103   52  113 1    
   104   53  114 1    
   105   53  115 1    
   106   53  116 1    
   107   54   55 am   BACKBONE|DICT|INTERRES
   108   54  117 1    
   109   55   56 2    
   110   55   57 1    
   111   57   58 1    
   112   57   59 1    
   113   57  118 1    
   114   58  119 1    
   115   58  120 1    
   116   58  121 1    
   117   59   60 am   BACKBONE|DICT|INTERRES
   118   59  122 1    
   119   60   61 2    
   120   60   62 1    
   121   62   63 1    
   122   62   64 1    
   123   62  123 1    
   124   63  124 1    
   125   63  125 1    
   126   63  126 1    
   127   64   65 am   BACKBONE|DICT|INTERRES
   128   64  127 1    
   129   65   66 2    
@<TRIPOS>SUBSTRUCTURE
     1 UNK         1 GROUP             0       ****    0 ROOT    
