@<TRIPOS>MOLECULE
3R134
127   129    1
SMALL
USER_CHARGES


@<TRIPOS>ATOM
      1 CA         31.8579  -44.7408  -46.6917 C.3       0 UNK        -0.1968 
      2 C          32.5985  -45.4260  -47.8309 C.2       0 UNK         0.4852 
      3 O          33.5335  -46.1885  -47.5805 O.2       0 UNK        -0.5359 
      4 N          32.1941  -45.1533  -49.0781 N.am      1 UNK        -0.4300 
      5 CA         32.7524  -45.7506  -50.2943 C.3       1 UNK         0.0863 
      6 C6         32.2860  -45.0033  -51.5663 C.3       11 UNK        -0.0953 
      7 S7         32.8206  -43.2636  -51.6114 S.3       11 UNK        -0.2369 
      8 C8         33.7554  -43.2057  -53.1787 C.3       11 UNK         0.0226 
      9 C9         32.9004  -43.2754  -54.4466 C.ar      11 UNK        -0.0699 
     10 C10        33.4180  -43.9081  -55.5819 C.ar      11 UNK        -0.0804 
     11 C11        32.7117  -43.9052  -56.7891 C.ar      11 UNK        -0.0871 
     12 C12        31.4687  -43.2738  -56.8572 C.ar      11 UNK        -0.1008 
     13 C13        30.9260  -42.6515  -55.7297 C.ar      11 UNK        -0.0735 
     14 C14        31.6470  -42.6538  -54.5296 C.ar      11 UNK        -0.0945 
     15 C15        29.5870  -41.9308  -55.8203 C.3       11 UNK         0.0169 
     16 S16        28.1831  -43.0889  -55.8848 S.3       11 UNK        -0.2669 
     17 C17        28.1126  -43.5080  -57.6638 C.3       11 UNK        -0.0850 
     18 CA         26.6791  -43.8742  -58.1266 C.3       10 UNK         0.0855 
     19 C          26.6244  -44.0915  -59.6612 C.2       10 UNK         0.5543 
     20 N          26.3681  -43.0374  -60.4236 N.am      10 UNK        -0.7343 
     21 O          26.8529  -45.1865  -60.1707 O.2       10 UNK        -0.5027 
     22 N          26.1641  -45.0398  -57.3981 N.am      10 UNK        -0.4495 
     23 C          24.8751  -45.2425  -57.1060 C.2       10 UNK         0.4903 
     24 O          23.9668  -44.4866  -57.4572 O.2       10 UNK        -0.4860 
     25 CA         24.5588  -46.4706  -56.2338 C.3       9 UNK         0.0227 
     26 CB         23.0460  -46.7351  -56.0669 C.3       9 UNK        -0.1964 
     27 N          25.2735  -47.6783  -56.6577 N.am      9 UNK        -0.4231 
     28 C          25.0992  -48.3827  -57.7871 C.2       9 UNK         0.5014 
     29 O          24.2784  -48.0838  -58.6561 O.2       9 UNK        -0.5270 
     30 CA         25.9660  -49.6445  -57.9971 C.3       8 UNK         0.0284 
     31 CB         26.7237  -49.5730  -59.3346 C.3       8 UNK        -0.1977 
     32 N          26.9273  -49.8999  -56.9198 N.am      8 UNK        -0.4342 
     33 C          26.6363  -50.4013  -55.7114 C.2       8 UNK         0.5039 
     34 O          25.5171  -50.7986  -55.3875 O.2       8 UNK        -0.5547 
     35 CA         27.7711  -50.4010  -54.6683 C.3       7 UNK         0.0281 
     36 CB         28.5942  -51.6954  -54.7540 C.3       7 UNK        -0.1963 
     37 N          28.6589  -49.2375  -54.7872 N.am      7 UNK        -0.4444 
     38 C          28.2692  -47.9641  -54.6256 C.2       7 UNK         0.5104 
     39 O          27.1281  -47.6364  -54.3025 O.2       7 UNK        -0.5100 
     40 CA         29.2980  -46.8694  -54.9461 C.3       6 UNK         0.0396 
     41 CB         30.2160  -46.5935  -53.7531 C.3       6 UNK        -0.1801 
     42 N          30.1010  -47.1894  -56.1256 N.am      6 UNK        -0.4747 
     43 C          29.6184  -47.1894  -57.3741 C.2       6 UNK         0.5012 
     44 O          28.4564  -46.8909  -57.6485 O.2       6 UNK        -0.5003 
     45 CA         30.5703  -47.6510  -58.4950 C.3       5 UNK         0.0782 
     46 C46        31.4891  -46.5029  -58.9983 C.3       11 UNK        -0.0868 
     47 S47        33.0577  -46.3345  -58.0689 S.3       11 UNK        -0.2515 
     48 C48        33.3210  -44.5379  -58.0302 C.3       11 UNK         0.0199 
     49 N          31.3310  -48.8468  -58.1188 N.am      5 UNK        -0.4607 
     50 C          30.8120  -50.0430  -57.8212 C.2       4 UNK         0.5031 
     51 O          29.6163  -50.3108  -57.9159 O.2       4 UNK        -0.5119 
     52 CA         31.7880  -51.1028  -57.2798 C.3       4 UNK         0.0263 
     53 CB         32.4244  -51.8872  -58.4378 C.3       4 UNK        -0.1967 
     54 N          32.8432  -50.5503  -56.4198 N.am      4 UNK        -0.4237 
     55 C          32.6290  -49.8819  -55.2774 C.2       3 UNK         0.4908 
     56 O          31.5067  -49.6296  -54.8336 O.2       3 UNK        -0.5102 
     57 CA         33.8794  -49.3592  -54.5495 C.3       3 UNK         0.0241 
     58 CB         34.3698  -48.0527  -55.1944 C.3       3 UNK        -0.1971 
     59 N          33.6386  -49.1067  -53.1282 N.am      3 UNK        -0.4139 
     60 C          33.4243  -50.0440  -52.1950 C.2       2 UNK         0.5016 
     61 O          33.4273  -51.2535  -52.4315 O.2       2 UNK        -0.5319 
     62 CA         33.2036  -49.5600  -50.7481 C.3       2 UNK         0.0286 
     63 CB         34.1810  -50.2543  -49.7820 C.3       2 UNK        -0.1963 
     64 N          33.3658  -48.1062  -50.6084 N.am      2 UNK        -0.4790 
     65 C          32.3677  -47.2418  -50.3854 C.2       1 UNK         0.5024 
     66 O          31.1840  -47.5695  -50.2791 O.2       1 UNK        -0.4888 
     67 H67        31.0659  -44.0861  -47.0552 H         1 UNK         0.0892 
     68 H68        31.4077  -45.4854  -46.0358 H         1 UNK         0.0892 
     69 H69        32.5497  -44.1401  -46.1020 H         1 UNK         0.0892 
     70 H70        31.4165  -44.5257  -49.2227 H         1 UNK         0.3107 
     71 H71        33.8404  -45.6735  -50.2336 H         1 UNK         0.0773 
     72 H72        32.6598  -45.5086  -52.4585 H         1 UNK         0.0680 
     73 H73        31.1975  -45.0106  -51.6344 H         1 UNK         0.0680 
     74 H74        34.4958  -44.0072  -53.1704 H         1 UNK         0.0650 
     75 H75        34.3175  -42.2715  -53.2035 H         1 UNK         0.0650 
     76 H76        34.3903  -44.3800  -55.5379 H         1 UNK         0.1397 
     77 H77        30.9324  -43.2509  -57.7946 H         1 UNK         0.1363 
     78 H78        31.2411  -42.1459  -53.6661 H         1 UNK         0.1355 
     79 H79        29.4520  -41.2827  -54.9531 H         1 UNK         0.0707 
     80 H80        29.5753  -41.2711  -56.6889 H         1 UNK         0.0707 
     81 H81        28.4793  -42.6565  -58.2397 H         1 UNK         0.1034 
     82 H82        28.8037  -44.3272  -57.8603 H         1 UNK         0.1034 
     83 H83        26.0404  -43.0194  -57.8932 H         1 UNK         0.0482 
     84 H84        26.3430  -43.1526  -61.4248 H         1 UNK         0.3460 
     85 H85        26.1850  -42.1319  -60.0197 H         1 UNK         0.3460 
     86 H86        26.8502  -45.7550  -57.1813 H         1 UNK         0.2989 
     87 H87        24.9487  -46.2331  -55.2432 H         1 UNK         0.0559 
     88 H88        22.5544  -46.9139  -57.0235 H         1 UNK         0.0848 
     89 H89        22.5506  -45.8800  -55.6056 H         1 UNK         0.0848 
     90 H90        22.8620  -47.5983  -55.4274 H         1 UNK         0.0848 
     91 H91        25.9880  -47.9910  -56.0097 H         1 UNK         0.3144 
     92 H92        25.2807  -50.4930  -58.0456 H         1 UNK         0.0727 
     93 H93        27.4088  -48.7254  -59.3630 H         1 UNK         0.0790 
     94 H94        26.0345  -49.4614  -60.1726 H         1 UNK         0.0790 
     95 H95        27.3027  -50.4793  -59.5128 H         1 UNK         0.0790 
     96 H96        27.8993  -49.6879  -57.1275 H         1 UNK         0.3215 
     97 H97        27.3095  -50.3570  -53.6796 H         1 UNK         0.0863 
     98 H98        29.4044  -51.7031  -54.0243 H         1 UNK         0.0808 
     99 H99        29.0304  -51.8308  -55.7429 H         1 UNK         0.0808 
    100 H100       27.9679  -52.5660  -54.5553 H         1 UNK         0.0808 
    101 H101       29.6400  -49.4161  -54.9934 H         1 UNK         0.3118 
    102 H102       28.7454  -45.9513  -55.1543 H         1 UNK         0.0546 
    103 H103       29.6318  -46.3339  -52.8695 H         1 UNK         0.0828 
    104 H104       30.8749  -45.7536  -53.9718 H         1 UNK         0.0828 
    105 H105       30.8317  -47.4551  -53.4952 H         1 UNK         0.0828 
    106 H106       31.0498  -47.4980  -55.9692 H         1 UNK         0.3005 
    107 H107       29.9241  -47.9388  -59.3278 H         1 UNK         0.1257 
    108 H108       30.9562  -45.5501  -59.0144 H         1 UNK         0.0775 
    109 H109       31.7603  -46.6977  -60.0369 H         1 UNK         0.0775 
    110 H110       34.3949  -44.3453  -58.0419 H         1 UNK         0.0840 
    111 H111       32.9270  -44.0800  -58.9389 H         1 UNK         0.0840 
    112 H112       32.3251  -48.7080  -58.0084 H         1 UNK         0.2987 
    113 H113       31.2091  -51.8026  -56.6748 H         1 UNK         0.0785 
    114 H114       31.6578  -52.3248  -59.0793 H         1 UNK         0.0798 
    115 H115       33.0420  -52.7070  -58.0706 H         1 UNK         0.0798 
    116 H116       33.0487  -51.2495  -59.0650 H         1 UNK         0.0798 
    117 H117       33.7953  -50.7035  -56.7207 H         1 UNK         0.3079 
    118 H118       34.6665  -50.1120  -54.6301 H         1 UNK         0.0794 
    119 H119       33.6119  -47.2690  -55.1486 H         1 UNK         0.0786 
    120 H120       34.6237  -48.2032  -56.2442 H         1 UNK         0.0786 
    121 H121       35.2674  -47.6782  -54.7019 H         1 UNK         0.0786 
    122 H122       33.5839  -48.1418  -52.8432 H         1 UNK         0.3032 
    123 H123       32.1891  -49.8588  -50.4740 H         1 UNK         0.1094 
    124 H124       35.2201  -50.0376  -50.0328 H         1 UNK         0.0794 
    125 H125       34.0111  -49.9371  -48.7527 H         1 UNK         0.0794 
    126 H126       34.0579  -51.3379  -49.8078 H         1 UNK         0.0794 
    127 H127       34.3131  -47.7560  -50.6612 H         1 UNK         0.3016 
@<TRIPOS>BOND
     1    1    2 1    
     2    1   67 1    
     3    1   68 1    
     4    1   69 1    
     5    2    3 2    
     6    2    4 am   BACKBONE|DICT|INTERRES
     7    4    5 1    
     8    4   70 1    
     9    5    6 1    
    10    5   65 1    
    11    5   71 1    
    12    6    7 1    
    13    6   72 1    
    14    6   73 1    
    15    7    8 1    
    16    8    9 1    
    17    8   74 1    
    18    8   75 1    
    19    9   10 ar   
    20    9   14 ar   
    21   10   11 ar   
    22   10   76 1    
    23   11   12 ar   
    24   11   48 1    
    25   12   13 ar   
    26   12   77 1    
    27   13   14 ar   
    28   13   15 1    
    29   14   78 1    
    30   15   16 1    
    31   15   79 1    
    32   15   80 1    
    33   16   17 1    
    34   17   18 1    
    35   17   81 1    
    36   17   82 1    
    37   18   19 1    
    38   18   22 1    
    39   18   83 1    
    40   19   20 am   BACKBONE|DICT|INTERRES
    41   19   21 2    
    42   20   84 1    
    43   20   85 1    
    44   22   23 am   BACKBONE|DICT|INTERRES
    45   22   86 1    
    46   23   24 2    
    47   23   25 1    
    48   25   26 1    
    49   25   27 1    
    50   25   87 1    
    51   26   88 1    
    52   26   89 1    
    53   26   90 1    
    54   27   28 am   BACKBONE|DICT|INTERRES
    55   27   91 1    
    56   28   29 2    
    57   28   30 1    
    58   30   31 1    
    59   30   32 1    
    60   30   92 1    
    61   31   93 1    
    62   31   94 1    
    63   31   95 1    
    64   32   33 am   BACKBONE|DICT|INTERRES
    65   32   96 1    
    66   33   34 2    
    67   33   35 1    
    68   35   36 1    
    69   35   37 1    
    70   35   97 1    
    71   36   98 1    
    72   36   99 1    
    73   36  100 1    
    74   37   38 am   BACKBONE|DICT|INTERRES
    75   37  101 1    
    76   38   39 2    
    77   38   40 1    
    78   40   41 1    
    79   40   42 1    
    80   40  102 1    
    81   41  103 1    
    82   41  104 1    
    83   41  105 1    
    84   42   43 am   BACKBONE|DICT|INTERRES
    85   42  106 1    
    86   43   44 2    
    87   43   45 1    
    88   45   46 1    
    89   45   49 1    
    90   45  107 1    
    91   46   47 1    
    92   46  108 1    
    93   46  109 1    
    94   47   48 1    
    95   48  110 1    
    96   48  111 1    
    97   49   50 am   BACKBONE|DICT|INTERRES
    98   49  112 1    
    99   50   51 2    
   100   50   52 1    
   101   52   53 1    
   102   52   54 1    
   103   52  113 1    
   104   53  114 1    
   105   53  115 1    
   106   53  116 1    
   107   54   55 am   BACKBONE|DICT|INTERRES
   108   54  117 1    
   109   55   56 2    
   110   55   57 1    
   111   57   58 1    
   112   57   59 1    
   113   57  118 1    
   114   58  119 1    
   115   58  120 1    
   116   58  121 1    
   117   59   60 am   BACKBONE|DICT|INTERRES
   118   59  122 1    
   119   60   61 2    
   120   60   62 1    
   121   62   63 1    
   122   62   64 1    
   123   62  123 1    
   124   63  124 1    
   125   63  125 1    
   126   63  126 1    
   127   64   65 am   BACKBONE|DICT|INTERRES
   128   64  127 1    
   129   65   66 2    
@<TRIPOS>SUBSTRUCTURE
     1 UNK         1 GROUP             0       ****    0 ROOT    
