@<TRIPOS>MOLECULE
3R134
127   129    1
SMALL
USER_CHARGES


@<TRIPOS>ATOM
      1 CA         33.6287  -44.8940  -47.7093 C.3       0 UNK        -0.1968 
      2 C          33.3872  -45.2993  -49.1563 C.2       0 UNK         0.4852 
      3 O          32.6471  -46.2528  -49.4031 O.2       0 UNK        -0.5359 
      4 N          34.0068  -44.5795  -50.1032 N.am      1 UNK        -0.4300 
      5 CA         33.9399  -44.7957  -51.5551 C.3       1 UNK         0.0863 
      6 C6         32.5324  -44.5264  -52.1652 C.3       11 UNK        -0.0953 
      7 S7         31.9314  -42.8349  -51.8257 S.3       11 UNK        -0.2369 
      8 C8         32.7177  -41.8600  -53.1503 C.3       11 UNK         0.0226 
      9 C9         32.0554  -42.0856  -54.5012 C.ar      11 UNK        -0.0699 
     10 C10        32.5776  -43.0274  -55.3912 C.ar      11 UNK        -0.0804 
     11 C11        31.9502  -43.2732  -56.6157 C.ar      11 UNK        -0.0871 
     12 C12        30.8274  -42.5203  -56.9735 C.ar      11 UNK        -0.1008 
     13 C13        30.3101  -41.5559  -56.1051 C.ar      11 UNK        -0.0735 
     14 C14        30.9229  -41.3498  -54.8648 C.ar      11 UNK        -0.0945 
     15 C15        29.1051  -40.7204  -56.5131 C.3       11 UNK         0.0169 
     16 S16        27.5349  -41.4540  -55.9538 S.3       11 UNK        -0.2669 
     17 C17        27.1593  -42.6737  -57.2651 C.3       11 UNK        -0.0850 
     18 CA         27.2400  -44.1477  -56.7837 C.3       10 UNK         0.0855 
     19 C          26.1457  -44.5029  -55.7445 C.2       10 UNK         0.5543 
     20 N          26.4744  -44.4956  -54.4597 N.am      10 UNK        -0.7343 
     21 O          24.9931  -44.7514  -56.0938 O.2       10 UNK        -0.5027 
     22 N          27.1600  -45.0916  -57.9036 N.am      10 UNK        -0.4495 
     23 C          28.1635  -45.4109  -58.7225 C.2       10 UNK         0.4903 
     24 O          29.2570  -44.8506  -58.6954 O.2       10 UNK        -0.4860 
     25 CA         27.9257  -46.5588  -59.7241 C.3       9 UNK         0.0227 
     26 CB         29.1853  -46.8898  -60.5484 C.3       9 UNK        -0.1964 
     27 N          27.4480  -47.7958  -59.0961 N.am      9 UNK        -0.4231 
     28 C          26.1784  -48.0387  -58.7459 C.2       9 UNK         0.5014 
     29 O          25.2922  -47.1829  -58.7531 O.2       9 UNK        -0.5270 
     30 CA         25.8216  -49.4854  -58.3895 C.3       8 UNK         0.0284 
     31 CB         26.3445  -50.4867  -59.4433 C.3       8 UNK        -0.1977 
     32 N          26.2814  -49.8561  -57.0504 N.am      8 UNK        -0.4342 
     33 C          25.7439  -50.8638  -56.3460 C.2       8 UNK         0.5039 
     34 O          24.7551  -51.4968  -56.7223 O.2       8 UNK        -0.5547 
     35 CA         26.4088  -51.2899  -55.0256 C.3       7 UNK         0.0281 
     36 CB         27.1307  -52.6352  -55.2129 C.3       7 UNK        -0.1963 
     37 N          27.3548  -50.3107  -54.4917 N.am      7 UNK        -0.4444 
     38 C          27.0019  -49.2513  -53.7531 C.2       7 UNK         0.5104 
     39 O          25.8391  -48.9875  -53.4449 O.2       7 UNK        -0.5100 
     40 CA         28.1345  -48.3195  -53.2849 C.3       6 UNK         0.0396 
     41 CB         28.7685  -48.8494  -51.9896 C.3       6 UNK        -0.1801 
     42 N          29.1875  -48.0994  -54.2801 N.am      6 UNK        -0.4747 
     43 C          28.9974  -47.6026  -55.5107 C.2       6 UNK         0.5012 
     44 O          27.8901  -47.3676  -55.9863 O.2       6 UNK        -0.5003 
     45 CA         30.2563  -47.3877  -56.3667 C.3       5 UNK         0.0782 
     46 C46        31.1164  -46.2289  -55.8088 C.3       11 UNK        -0.0868 
     47 S47        32.6882  -45.9812  -56.7091 S.3       11 UNK        -0.2515 
     48 C48        32.4617  -44.3702  -57.5436 C.3       11 UNK         0.0199 
     49 N          30.9759  -48.6517  -56.4821 N.am      5 UNK        -0.4607 
     50 C          30.5811  -49.6654  -57.2627 C.2       4 UNK         0.5031 
     51 O          29.6316  -49.5960  -58.0462 O.2       4 UNK        -0.5119 
     52 CA         31.3644  -50.9834  -57.1308 C.3       4 UNK         0.0263 
     53 CB         32.4820  -51.0472  -58.1835 C.3       4 UNK        -0.1967 
     54 N          31.9396  -51.1865  -55.7951 N.am      4 UNK        -0.4237 
     55 C          31.2172  -51.3598  -54.6782 C.2       3 UNK         0.4908 
     56 O          29.9884  -51.3877  -54.6557 O.2       3 UNK        -0.5102 
     57 CA         31.9916  -51.4685  -53.3549 C.3       3 UNK         0.0241 
     58 CB         32.5207  -52.8972  -53.1519 C.3       3 UNK        -0.1971 
     59 N          33.0935  -50.5073  -53.2332 N.am      3 UNK        -0.4139 
     60 C          32.9522  -49.1755  -53.2722 C.2       2 UNK         0.5016 
     61 O          31.8786  -48.6009  -53.4766 O.2       2 UNK        -0.5319 
     62 CA         34.2245  -48.3448  -53.0825 C.3       2 UNK         0.0286 
     63 CB         35.0498  -48.2920  -54.3806 C.3       2 UNK        -0.1963 
     64 N          33.8331  -46.9950  -52.6876 N.am      2 UNK        -0.4790 
     65 C          34.5564  -46.1642  -51.9296 C.2       1 UNK         0.5024 
     66 O          35.6908  -46.4347  -51.5280 O.2       1 UNK        -0.4888 
     67 H67        34.0757  -45.7207  -47.1579 H         1 UNK         0.0892 
     68 H68        34.2944  -44.0347  -47.6307 H         1 UNK         0.0892 
     69 H69        32.6846  -44.6355  -47.2305 H         1 UNK         0.0892 
     70 H70        34.6179  -43.8277  -49.8172 H         1 UNK         0.3107 
     71 H71        34.6206  -44.0625  -51.9896 H         1 UNK         0.0773 
     72 H72        31.7978  -45.2251  -51.7615 H         1 UNK         0.0680 
     73 H73        32.5345  -44.6860  -53.2425 H         1 UNK         0.0680 
     74 H74        33.7818  -42.0947  -53.1995 H         1 UNK         0.0650 
     75 H75        32.6545  -40.8030  -52.8874 H         1 UNK         0.0650 
     76 H76        33.4546  -43.5980  -55.1182 H         1 UNK         0.1397 
     77 H77        30.3476  -42.6894  -57.9270 H         1 UNK         0.1363 
     78 H78        30.5194  -40.6142  -54.1822 H         1 UNK         0.1355 
     79 H79        29.0872  -40.5705  -57.5937 H         1 UNK         0.0707 
     80 H80        29.1931  -39.7239  -56.0773 H         1 UNK         0.0707 
     81 H81        26.1658  -42.4602  -57.6635 H         1 UNK         0.1034 
     82 H82        27.8459  -42.5176  -58.0976 H         1 UNK         0.1034 
     83 H83        28.2108  -44.2973  -56.3056 H         1 UNK         0.0482 
     84 H84        25.7702  -44.7128  -53.7729 H         1 UNK         0.3460 
     85 H85        27.4072  -44.2543  -54.1659 H         1 UNK         0.3460 
     86 H86        26.3006  -45.6329  -57.9566 H         1 UNK         0.2989 
     87 H87        27.1629  -46.2097  -60.4231 H         1 UNK         0.0559 
     88 H88        29.5492  -46.0101  -61.0812 H         1 UNK         0.0848 
     89 H89        28.9806  -47.6554  -61.2969 H         1 UNK         0.0848 
     90 H90        29.9990  -47.2487  -59.9166 H         1 UNK         0.0848 
     91 H91        28.1352  -48.5324  -58.9639 H         1 UNK         0.3144 
     92 H92        24.7302  -49.5330  -58.4038 H         1 UNK         0.0727 
     93 H93        25.9000  -51.4726  -59.3068 H         1 UNK         0.0790 
     94 H94        27.4273  -50.6051  -59.3941 H         1 UNK         0.0790 
     95 H95        26.0937  -50.1616  -60.4541 H         1 UNK         0.0790 
     96 H96        27.0372  -49.3066  -56.6553 H         1 UNK         0.3215 
     97 H97        25.6104  -51.4398  -54.2953 H         1 UNK         0.0863 
     98 H98        27.5846  -52.9765  -54.2824 H         1 UNK         0.0808 
     99 H99        27.9177  -52.5675  -55.9652 H         1 UNK         0.0808 
    100 H100       26.4360  -53.4109  -55.5379 H         1 UNK         0.0808 
    101 H101       28.3439  -50.4978  -54.6487 H         1 UNK         0.3118 
    102 H102       27.6883  -47.3461  -53.0714 H         1 UNK         0.0546 
    103 H103       29.2606  -49.8096  -52.1482 H         1 UNK         0.0828 
    104 H104       28.0151  -48.9911  -51.2138 H         1 UNK         0.0828 
    105 H105       29.5120  -48.1547  -51.5979 H         1 UNK         0.0828 
    106 H106       30.1406  -48.3069  -53.9838 H         1 UNK         0.3005 
    107 H107       29.9346  -47.1006  -57.3672 H         1 UNK         0.1257 
    108 H108       31.3708  -46.3966  -54.7623 H         1 UNK         0.0775 
    109 H109       30.5291  -45.3104  -55.8226 H         1 UNK         0.0775 
    110 H110       33.4171  -44.0568  -57.9659 H         1 UNK         0.0840 
    111 H111       31.7886  -44.5107  -58.3893 H         1 UNK         0.0840 
    112 H112       31.7388  -48.7919  -55.8359 H         1 UNK         0.2987 
    113 H113       30.6632  -51.7987  -57.3219 H         1 UNK         0.0785 
    114 H114       32.0769  -50.9228  -59.1889 H         1 UNK         0.0798 
    115 H115       32.9959  -52.0083  -58.1602 H         1 UNK         0.0798 
    116 H116       33.2250  -50.2629  -58.0328 H         1 UNK         0.0798 
    117 H117       32.9463  -51.1737  -55.7215 H         1 UNK         0.3079 
    118 H118       31.2856  -51.2538  -52.5500 H         1 UNK         0.0794 
    119 H119       32.9731  -53.0166  -52.1671 H         1 UNK         0.0786 
    120 H120       33.2682  -53.1646  -53.8999 H         1 UNK         0.0786 
    121 H121       31.7121  -53.6262  -53.2241 H         1 UNK         0.0786 
    122 H122       34.0125  -50.8943  -53.0715 H         1 UNK         0.3032 
    123 H123       34.8158  -48.8004  -52.2845 H         1 UNK         0.1094 
    124 H124       34.4781  -47.8636  -55.2041 H         1 UNK         0.0794 
    125 H125       35.9508  -47.6916  -54.2536 H         1 UNK         0.0794 
    126 H126       35.3687  -49.2887  -54.6875 H         1 UNK         0.0794 
    127 H127       32.8774  -46.7616  -52.9261 H         1 UNK         0.3016 
@<TRIPOS>BOND
     1    1    2 1    
     2    1   67 1    
     3    1   68 1    
     4    1   69 1    
     5    2    3 2    
     6    2    4 am   BACKBONE|DICT|INTERRES
     7    4    5 1    
     8    4   70 1    
     9    5    6 1    
    10    5   65 1    
    11    5   71 1    
    12    6    7 1    
    13    6   72 1    
    14    6   73 1    
    15    7    8 1    
    16    8    9 1    
    17    8   74 1    
    18    8   75 1    
    19    9   10 ar   
    20    9   14 ar   
    21   10   11 ar   
    22   10   76 1    
    23   11   12 ar   
    24   11   48 1    
    25   12   13 ar   
    26   12   77 1    
    27   13   14 ar   
    28   13   15 1    
    29   14   78 1    
    30   15   16 1    
    31   15   79 1    
    32   15   80 1    
    33   16   17 1    
    34   17   18 1    
    35   17   81 1    
    36   17   82 1    
    37   18   19 1    
    38   18   22 1    
    39   18   83 1    
    40   19   20 am   BACKBONE|DICT|INTERRES
    41   19   21 2    
    42   20   84 1    
    43   20   85 1    
    44   22   23 am   BACKBONE|DICT|INTERRES
    45   22   86 1    
    46   23   24 2    
    47   23   25 1    
    48   25   26 1    
    49   25   27 1    
    50   25   87 1    
    51   26   88 1    
    52   26   89 1    
    53   26   90 1    
    54   27   28 am   BACKBONE|DICT|INTERRES
    55   27   91 1    
    56   28   29 2    
    57   28   30 1    
    58   30   31 1    
    59   30   32 1    
    60   30   92 1    
    61   31   93 1    
    62   31   94 1    
    63   31   95 1    
    64   32   33 am   BACKBONE|DICT|INTERRES
    65   32   96 1    
    66   33   34 2    
    67   33   35 1    
    68   35   36 1    
    69   35   37 1    
    70   35   97 1    
    71   36   98 1    
    72   36   99 1    
    73   36  100 1    
    74   37   38 am   BACKBONE|DICT|INTERRES
    75   37  101 1    
    76   38   39 2    
    77   38   40 1    
    78   40   41 1    
    79   40   42 1    
    80   40  102 1    
    81   41  103 1    
    82   41  104 1    
    83   41  105 1    
    84   42   43 am   BACKBONE|DICT|INTERRES
    85   42  106 1    
    86   43   44 2    
    87   43   45 1    
    88   45   46 1    
    89   45   49 1    
    90   45  107 1    
    91   46   47 1    
    92   46  108 1    
    93   46  109 1    
    94   47   48 1    
    95   48  110 1    
    96   48  111 1    
    97   49   50 am   BACKBONE|DICT|INTERRES
    98   49  112 1    
    99   50   51 2    
   100   50   52 1    
   101   52   53 1    
   102   52   54 1    
   103   52  113 1    
   104   53  114 1    
   105   53  115 1    
   106   53  116 1    
   107   54   55 am   BACKBONE|DICT|INTERRES
   108   54  117 1    
   109   55   56 2    
   110   55   57 1    
   111   57   58 1    
   112   57   59 1    
   113   57  118 1    
   114   58  119 1    
   115   58  120 1    
   116   58  121 1    
   117   59   60 am   BACKBONE|DICT|INTERRES
   118   59  122 1    
   119   60   61 2    
   120   60   62 1    
   121   62   63 1    
   122   62   64 1    
   123   62  123 1    
   124   63  124 1    
   125   63  125 1    
   126   63  126 1    
   127   64   65 am   BACKBONE|DICT|INTERRES
   128   64  127 1    
   129   65   66 2    
@<TRIPOS>SUBSTRUCTURE
     1 UNK         1 GROUP             0       ****    0 ROOT    
