@<TRIPOS>MOLECULE
3R134
127   129    1
SMALL
USER_CHARGES


@<TRIPOS>ATOM
      1 CA         35.4718  -43.7678  -57.9509 C.3       0 UNK        -0.1968 
      2 C          34.3860  -44.7951  -57.6674 C.2       0 UNK         0.4852 
      3 O          33.2736  -44.6632  -58.1774 O.2       0 UNK        -0.5359 
      4 N          34.7015  -45.8102  -56.8579 N.am      1 UNK        -0.4300 
      5 CA         33.8166  -46.9058  -56.4681 C.3       1 UNK         0.0863 
      6 C6         32.7579  -46.4876  -55.4079 C.3       11 UNK        -0.0953 
      7 S7         33.4540  -45.9690  -53.7995 S.3       11 UNK        -0.2369 
      8 C8         33.4681  -44.1552  -53.9586 C.3       11 UNK         0.0226 
      9 C9         32.0706  -43.5648  -53.8615 C.ar      11 UNK        -0.0699 
     10 C10        31.4129  -43.5474  -52.6298 C.ar      11 UNK        -0.0804 
     11 C11        30.1239  -43.0208  -52.5215 C.ar      11 UNK        -0.0871 
     12 C12        29.5080  -42.4711  -53.6483 C.ar      11 UNK        -0.1008 
     13 C13        30.1565  -42.4783  -54.8863 C.ar      11 UNK        -0.0735 
     14 C14        31.4370  -43.0325  -54.9896 C.ar      11 UNK        -0.0945 
     15 C15        29.4763  -41.8773  -56.1078 C.3       11 UNK         0.0169 
     16 S16        28.4295  -43.0920  -56.9668 S.3       11 UNK        -0.2669 
     17 C17        27.0099  -43.2454  -55.8230 C.3       11 UNK        -0.0850 
     18 CA         25.6925  -43.6990  -56.5058 C.3       10 UNK         0.0855 
     19 C          25.0970  -42.5911  -57.4243 C.2       10 UNK         0.5543 
     20 N          24.4499  -41.5919  -56.8387 N.am      10 UNK        -0.7343 
     21 O          25.2360  -42.6075  -58.6461 O.2       10 UNK        -0.5027 
     22 N          25.8662  -45.0043  -57.1558 N.am      10 UNK        -0.4495 
     23 C          24.9042  -45.7392  -57.7264 C.2       10 UNK         0.4903 
     24 O          23.7104  -45.4369  -57.6953 O.2       10 UNK        -0.4860 
     25 CA         25.3144  -47.0612  -58.4082 C.3       9 UNK         0.0227 
     26 CB         24.8002  -47.1414  -59.8607 C.3       9 UNK        -0.1964 
     27 N          26.7464  -47.3872  -58.3223 N.am      9 UNK        -0.4231 
     28 C          27.7860  -46.7879  -58.9276 C.2       9 UNK         0.5014 
     29 O          27.6673  -45.8568  -59.7234 O.2       9 UNK        -0.5270 
     30 CA         29.2018  -47.2876  -58.5739 C.3       8 UNK         0.0284 
     31 CB         30.0908  -46.1370  -58.0750 C.3       8 UNK        -0.1977 
     32 N          29.1833  -48.3324  -57.5488 N.am      8 UNK        -0.4342 
     33 C          29.2086  -49.6498  -57.7919 C.2       8 UNK         0.5039 
     34 O          29.3551  -50.1388  -58.9122 O.2       8 UNK        -0.5547 
     35 CA         29.0000  -50.5842  -56.5858 C.3       7 UNK         0.0281 
     36 CB         30.3471  -51.1050  -56.0647 C.3       7 UNK        -0.1963 
     37 N          28.2535  -49.9503  -55.4928 N.am      7 UNK        -0.4444 
     38 C          26.9523  -49.6295  -55.5711 C.2       7 UNK         0.5104 
     39 O          26.2593  -49.8609  -56.5610 O.2       7 UNK        -0.5100 
     40 CA         26.3140  -48.8851  -54.3860 C.3       6 UNK         0.0396 
     41 CB         25.5416  -49.8686  -53.4934 C.3       6 UNK        -0.1801 
     42 N          27.2603  -48.1318  -53.5626 N.am      6 UNK        -0.4747 
     43 C          28.0188  -47.1038  -53.9729 C.2       6 UNK         0.5012 
     44 O          28.0358  -46.6807  -55.1297 O.2       6 UNK        -0.5003 
     45 CA         28.9436  -46.4897  -52.9009 C.3       5 UNK         0.0782 
     46 C46        28.1363  -45.4759  -52.0430 C.3       11 UNK        -0.0868 
     47 S47        29.0891  -44.7795  -50.6464 S.3       11 UNK        -0.2515 
     48 C48        29.3890  -43.0673  -51.1913 C.3       11 UNK         0.0199 
     49 N          29.5896  -47.5101  -52.0602 N.am      5 UNK        -0.4607 
     50 C          30.2863  -48.5777  -52.4708 C.2       4 UNK         0.5031 
     51 O          30.4679  -48.8828  -53.6522 O.2       4 UNK        -0.5119 
     52 CA         30.8058  -49.4957  -51.3615 C.3       4 UNK         0.0263 
     53 CB         29.6500  -50.3142  -50.7512 C.3       4 UNK        -0.1967 
     54 N          31.8158  -50.3950  -51.9118 N.am      4 UNK        -0.4237 
     55 C          32.7367  -51.0514  -51.1960 C.2       3 UNK         0.4908 
     56 O          32.8413  -50.9576  -49.9719 O.2       3 UNK        -0.5102 
     57 CA         33.6964  -51.9908  -51.9500 C.3       3 UNK         0.0241 
     58 CB         33.2209  -53.4480  -51.8239 C.3       3 UNK        -0.1971 
     59 N          33.8782  -51.6717  -53.3694 N.am      3 UNK        -0.4139 
     60 C          34.5326  -50.6005  -53.8387 C.2       2 UNK         0.5016 
     61 O          35.0127  -49.7287  -53.1130 O.2       2 UNK        -0.5319 
     62 CA         34.7012  -50.4869  -55.3660 C.3       2 UNK         0.0286 
     63 CB         34.1538  -51.6912  -56.1607 C.3       2 UNK        -0.1963 
     64 N          34.0589  -49.2620  -55.8443 N.am      2 UNK        -0.4790 
     65 C          34.6904  -48.0961  -56.0292 C.2       1 UNK         0.5024 
     66 O          35.9075  -47.9411  -55.8824 O.2       1 UNK        -0.4888 
     67 H67        35.1443  -42.7792  -57.6303 H         1 UNK         0.0892 
     68 H68        36.4007  -44.0021  -57.4310 H         1 UNK         0.0892 
     69 H69        35.6812  -43.7282  -59.0194 H         1 UNK         0.0892 
     70 H70        35.6423  -45.9166  -56.4969 H         1 UNK         0.3107 
     71 H71        33.2912  -47.2347  -57.3668 H         1 UNK         0.0773 
     72 H72        32.1337  -45.6866  -55.8037 H         1 UNK         0.0680 
     73 H73        32.0692  -47.3123  -55.2200 H         1 UNK         0.0680 
     74 H74        33.9497  -43.8681  -54.8930 H         1 UNK         0.0650 
     75 H75        34.0855  -43.7411  -53.1604 H         1 UNK         0.0650 
     76 H76        31.8944  -43.9716  -51.7590 H         1 UNK         0.1397 
     77 H77        28.5168  -42.0481  -53.5650 H         1 UNK         0.1363 
     78 H78        31.9391  -43.0490  -55.9478 H         1 UNK         0.1355 
     79 H79        30.2297  -41.5121  -56.8073 H         1 UNK         0.0707 
     80 H80        28.8806  -41.0080  -55.8252 H         1 UNK         0.0707 
     81 H81        27.2833  -43.9635  -55.0489 H         1 UNK         0.1034 
     82 H82        26.8545  -42.2975  -55.3054 H         1 UNK         0.1034 
     83 H83        24.9612  -43.8649  -55.7122 H         1 UNK         0.0482 
     84 H84        24.3267  -41.5613  -55.8387 H         1 UNK         0.3460 
     85 H85        24.0654  -40.8570  -57.4117 H         1 UNK         0.3460 
     86 H86        26.8221  -45.3168  -57.2434 H         1 UNK         0.2989 
     87 H87        24.8092  -47.8475  -57.8457 H         1 UNK         0.0559 
     88 H88        23.7127  -47.0651  -59.8937 H         1 UNK         0.0848 
     89 H89        25.0713  -48.0882  -60.3274 H         1 UNK         0.0848 
     90 H90        25.1960  -46.3348  -60.4784 H         1 UNK         0.0848 
     91 H91        26.9541  -48.1628  -57.7052 H         1 UNK         0.3144 
     92 H92        29.6400  -47.6740  -59.4963 H         1 UNK         0.0727 
     93 H93        29.7573  -45.7539  -57.1102 H         1 UNK         0.0790 
     94 H94        30.0968  -45.3004  -58.7752 H         1 UNK         0.0790 
     95 H95        31.1232  -46.4630  -57.9656 H         1 UNK         0.0790 
     96 H96        29.0366  -48.0153  -56.5968 H         1 UNK         0.3215 
     97 H97        28.4193  -51.4418  -56.9334 H         1 UNK         0.0863 
     98 H98        31.0102  -50.2905  -55.7749 H         1 UNK         0.0808 
     99 H99        30.8560  -51.6810  -56.8386 H         1 UNK         0.0808 
    100 H100       30.2177  -51.7605  -55.2034 H         1 UNK         0.0808 
    101 H101       28.7846  -49.6783  -54.6725 H         1 UNK         0.3118 
    102 H102       25.6018  -48.1688  -54.8014 H         1 UNK         0.0546 
    103 H103       26.2057  -50.5952  -53.0233 H         1 UNK         0.0828 
    104 H104       24.8060  -50.4278  -54.0735 H         1 UNK         0.0828 
    105 H105       24.9987  -49.3482  -52.7043 H         1 UNK         0.0828 
    106 H106       27.3394  -48.4154  -52.5966 H         1 UNK         0.3005 
    107 H107       29.7371  -45.9533  -53.4270 H         1 UNK         0.1257 
    108 H108       27.7580  -44.6635  -52.6658 H         1 UNK         0.0775 
    109 H109       27.2536  -45.9544  -51.6140 H         1 UNK         0.0775 
    110 H110       28.4357  -42.5395  -51.2494 H         1 UNK         0.0840 
    111 H111       29.9811  -42.5507  -50.4347 H         1 UNK         0.0840 
    112 H112       29.5082  -47.3453  -51.0669 H         1 UNK         0.2987 
    113 H113       31.2657  -48.8719  -50.5919 H         1 UNK         0.0785 
    114 H114       28.8815  -49.6654  -50.3296 H         1 UNK         0.0798 
    115 H115       29.9994  -50.9577  -49.9436 H         1 UNK         0.0798 
    116 H116       29.1701  -50.9486  -51.4977 H         1 UNK         0.0798 
    117 H117       31.8110  -50.4636  -52.9213 H         1 UNK         0.3079 
    118 H118       34.6710  -51.9095  -51.4636 H         1 UNK         0.0794 
    119 H119       33.9367  -54.1402  -52.2679 H         1 UNK         0.0786 
    120 H120       32.2564  -53.6018  -52.3097 H         1 UNK         0.0786 
    121 H121       33.1066  -53.7327  -50.7768 H         1 UNK         0.0786 
    122 H122       33.5201  -52.3432  -54.0329 H         1 UNK         0.3032 
    123 H123       35.7768  -50.4401  -55.5528 H         1 UNK         0.1094 
    124 H124       34.6686  -52.6128  -55.8848 H         1 UNK         0.0794 
    125 H125       33.0874  -51.8443  -56.0037 H         1 UNK         0.0794 
    126 H126       34.3104  -51.5543  -57.2310 H         1 UNK         0.0794 
    127 H127       33.0555  -49.2904  -55.9488 H         1 UNK         0.3016 
@<TRIPOS>BOND
     1    1    2 1    
     2    1   67 1    
     3    1   68 1    
     4    1   69 1    
     5    2    3 2    
     6    2    4 am   BACKBONE|DICT|INTERRES
     7    4    5 1    
     8    4   70 1    
     9    5    6 1    
    10    5   65 1    
    11    5   71 1    
    12    6    7 1    
    13    6   72 1    
    14    6   73 1    
    15    7    8 1    
    16    8    9 1    
    17    8   74 1    
    18    8   75 1    
    19    9   10 ar   
    20    9   14 ar   
    21   10   11 ar   
    22   10   76 1    
    23   11   12 ar   
    24   11   48 1    
    25   12   13 ar   
    26   12   77 1    
    27   13   14 ar   
    28   13   15 1    
    29   14   78 1    
    30   15   16 1    
    31   15   79 1    
    32   15   80 1    
    33   16   17 1    
    34   17   18 1    
    35   17   81 1    
    36   17   82 1    
    37   18   19 1    
    38   18   22 1    
    39   18   83 1    
    40   19   20 am   BACKBONE|DICT|INTERRES
    41   19   21 2    
    42   20   84 1    
    43   20   85 1    
    44   22   23 am   BACKBONE|DICT|INTERRES
    45   22   86 1    
    46   23   24 2    
    47   23   25 1    
    48   25   26 1    
    49   25   27 1    
    50   25   87 1    
    51   26   88 1    
    52   26   89 1    
    53   26   90 1    
    54   27   28 am   BACKBONE|DICT|INTERRES
    55   27   91 1    
    56   28   29 2    
    57   28   30 1    
    58   30   31 1    
    59   30   32 1    
    60   30   92 1    
    61   31   93 1    
    62   31   94 1    
    63   31   95 1    
    64   32   33 am   BACKBONE|DICT|INTERRES
    65   32   96 1    
    66   33   34 2    
    67   33   35 1    
    68   35   36 1    
    69   35   37 1    
    70   35   97 1    
    71   36   98 1    
    72   36   99 1    
    73   36  100 1    
    74   37   38 am   BACKBONE|DICT|INTERRES
    75   37  101 1    
    76   38   39 2    
    77   38   40 1    
    78   40   41 1    
    79   40   42 1    
    80   40  102 1    
    81   41  103 1    
    82   41  104 1    
    83   41  105 1    
    84   42   43 am   BACKBONE|DICT|INTERRES
    85   42  106 1    
    86   43   44 2    
    87   43   45 1    
    88   45   46 1    
    89   45   49 1    
    90   45  107 1    
    91   46   47 1    
    92   46  108 1    
    93   46  109 1    
    94   47   48 1    
    95   48  110 1    
    96   48  111 1    
    97   49   50 am   BACKBONE|DICT|INTERRES
    98   49  112 1    
    99   50   51 2    
   100   50   52 1    
   101   52   53 1    
   102   52   54 1    
   103   52  113 1    
   104   53  114 1    
   105   53  115 1    
   106   53  116 1    
   107   54   55 am   BACKBONE|DICT|INTERRES
   108   54  117 1    
   109   55   56 2    
   110   55   57 1    
   111   57   58 1    
   112   57   59 1    
   113   57  118 1    
   114   58  119 1    
   115   58  120 1    
   116   58  121 1    
   117   59   60 am   BACKBONE|DICT|INTERRES
   118   59  122 1    
   119   60   61 2    
   120   60   62 1    
   121   62   63 1    
   122   62   64 1    
   123   62  123 1    
   124   63  124 1    
   125   63  125 1    
   126   63  126 1    
   127   64   65 am   BACKBONE|DICT|INTERRES
   128   64  127 1    
   129   65   66 2    
@<TRIPOS>SUBSTRUCTURE
     1 UNK         1 GROUP             0       ****    0 ROOT    
