@<TRIPOS>MOLECULE
3R134
127   129    1
SMALL
USER_CHARGES


@<TRIPOS>ATOM
      1 CA         35.9856  -48.1924  -57.0349 C.3       0 UNK        -0.1968 
      2 C          35.2106  -47.7516  -55.8037 C.2       0 UNK         0.4852 
      3 O          34.3355  -48.4834  -55.3398 O.2       0 UNK        -0.5359 
      4 N          35.5353  -46.5725  -55.2558 N.am      1 UNK        -0.4300 
      5 CA         34.8723  -45.9022  -54.1224 C.3       1 UNK         0.0863 
      6 C6         35.4816  -44.5002  -53.8804 C.3       11 UNK        -0.0953 
      7 S7         35.1514  -43.3697  -55.2743 S.3       11 UNK        -0.2369 
      8 C8         34.2202  -42.0301  -54.4646 C.3       11 UNK         0.0226 
      9 C9         32.7577  -42.3849  -54.2245 C.ar      11 UNK        -0.0699 
     10 C10        32.3577  -42.9785  -53.0227 C.ar      11 UNK        -0.0804 
     11 C11        31.0070  -43.2415  -52.7724 C.ar      11 UNK        -0.0871 
     12 C12        30.0508  -42.9039  -53.7330 C.ar      11 UNK        -0.1008 
     13 C13        30.4368  -42.3052  -54.9356 C.ar      11 UNK        -0.0735 
     14 C14        31.7912  -42.0590  -55.1819 C.ar      11 UNK        -0.0945 
     15 C15        29.3798  -41.8707  -55.9368 C.3       11 UNK         0.0169 
     16 S16        28.9115  -43.2188  -57.0616 S.3       11 UNK        -0.2669 
     17 C17        27.4328  -42.4593  -57.8271 C.3       11 UNK        -0.0850 
     18 CA         26.4916  -43.4511  -58.5613 C.3       10 UNK         0.0855 
     19 C          27.0254  -43.8366  -59.9676 C.2       10 UNK         0.5543 
     20 N          26.8624  -42.9593  -60.9488 N.am      10 UNK        -0.7343 
     21 O          27.6039  -44.9006  -60.1764 O.2       10 UNK        -0.5027 
     22 N          26.2062  -44.6293  -57.7360 N.am      10 UNK        -0.4495 
     23 C          25.0594  -45.3148  -57.7301 C.2       10 UNK         0.4903 
     24 O          24.0383  -44.9649  -58.3249 O.2       10 UNK        -0.4860 
     25 CA         25.0923  -46.6281  -56.9298 C.3       9 UNK         0.0227 
     26 CB         23.7329  -47.3571  -56.8777 C.3       9 UNK        -0.1964 
     27 N          26.1547  -47.5135  -57.4175 N.am      9 UNK        -0.4231 
     28 C          26.2675  -48.0629  -58.6391 C.2       9 UNK         0.5014 
     29 O          25.4356  -47.9415  -59.5392 O.2       9 UNK        -0.5270 
     30 CA         27.5128  -48.9245  -58.8923 C.3       8 UNK         0.0284 
     31 CB         28.7171  -48.0532  -59.2878 C.3       8 UNK        -0.1977 
     32 N          27.8385  -49.7166  -57.7046 N.am      8 UNK        -0.4342 
     33 C          27.5537  -51.0173  -57.5648 C.2       8 UNK         0.5039 
     34 O          27.0603  -51.7150  -58.4522 O.2       8 UNK        -0.5547 
     35 CA         27.8713  -51.6590  -56.2053 C.3       7 UNK         0.0281 
     36 CB         29.3208  -52.1709  -56.1776 C.3       7 UNK        -0.1963 
     37 N          27.6343  -50.7688  -55.0638 N.am      7 UNK        -0.4444 
     38 C          26.4137  -50.4079  -54.6357 C.2       7 UNK         0.5104 
     39 O          25.3709  -50.7316  -55.2042 O.2       7 UNK        -0.5100 
     40 CA         26.3230  -49.5651  -53.3540 C.3       6 UNK         0.0396 
     41 CB         26.3307  -50.4765  -52.1163 C.3       6 UNK        -0.1801 
     42 N          27.4223  -48.6067  -53.2509 N.am      6 UNK        -0.4747 
     43 C          27.2851  -47.2721  -53.2209 C.2       6 UNK         0.5012 
     44 O          26.2025  -46.6856  -53.2209 O.2       6 UNK        -0.5003 
     45 CA         28.5929  -46.4497  -53.1954 C.3       5 UNK         0.0782 
     46 C46        29.0228  -46.2269  -51.7190 C.3       11 UNK        -0.0868 
     47 S47        30.7439  -45.6638  -51.4805 S.3       11 UNK        -0.2515 
     48 C48        30.5855  -43.8541  -51.4462 C.3       11 UNK         0.0199 
     49 N          29.6622  -47.0459  -54.0026 N.am      5 UNK        -0.4607 
     50 C          29.5810  -47.4622  -55.2724 C.2       4 UNK         0.5031 
     51 O          28.5687  -47.3798  -55.9685 O.2       4 UNK        -0.5119 
     52 CA         30.8162  -48.1700  -55.8476 C.3       4 UNK         0.0263 
     53 CB         31.6669  -47.1643  -56.6385 C.3       4 UNK        -0.1967 
     54 N          31.6546  -48.8776  -54.8659 N.am      4 UNK        -0.4237 
     55 C          31.2351  -49.7849  -53.9662 C.2       3 UNK         0.4908 
     56 O          30.0470  -50.0651  -53.7876 O.2       3 UNK        -0.5102 
     57 CA         32.2899  -50.5165  -53.1229 C.3       3 UNK         0.0241 
     58 CB         32.6643  -51.8532  -53.7845 C.3       3 UNK        -0.1971 
     59 N          33.5071  -49.7312  -52.8910 N.am      3 UNK        -0.4139 
     60 C          34.1352  -49.6344  -51.7082 C.2       2 UNK         0.5016 
     61 O          33.7344  -50.1731  -50.6751 O.2       2 UNK        -0.5319 
     62 CA         35.4446  -48.8195  -51.6504 C.3       2 UNK         0.0286 
     63 CB         36.6616  -49.7576  -51.7037 C.3       2 UNK        -0.1963 
     64 N          35.5607  -47.8299  -52.7227 N.am      2 UNK        -0.4790 
     65 C          34.8266  -46.7122  -52.8046 C.2       1 UNK         0.5024 
     66 O          34.1048  -46.3211  -51.8885 O.2       1 UNK        -0.4888 
     67 H67        36.4898  -49.1386  -56.8409 H         1 UNK         0.0892 
     68 H68        36.7367  -47.4598  -57.3293 H         1 UNK         0.0892 
     69 H69        35.3034  -48.3353  -57.8724 H         1 UNK         0.0892 
     70 H70        36.2690  -46.0284  -55.6875 H         1 UNK         0.3107 
     71 H71        33.8269  -45.7664  -54.4065 H         1 UNK         0.0773 
     72 H72        36.5617  -44.5721  -53.7408 H         1 UNK         0.0680 
     73 H73        35.0977  -44.0536  -52.9628 H         1 UNK         0.0680 
     74 H74        34.7055  -41.7574  -53.5262 H         1 UNK         0.0650 
     75 H75        34.2797  -41.1427  -55.0966 H         1 UNK         0.0650 
     76 H76        33.0929  -43.2231  -52.2690 H         1 UNK         0.1397 
     77 H77        29.0030  -43.0860  -53.5378 H         1 UNK         0.1363 
     78 H78        32.0906  -41.5865  -56.1076 H         1 UNK         0.1355 
     79 H79        29.7369  -41.0224  -56.5231 H         1 UNK         0.0707 
     80 H80        28.4990  -41.5194  -55.3969 H         1 UNK         0.0707 
     81 H81        27.7512  -41.6537  -58.4917 H         1 UNK         0.1034 
     82 H82        26.8578  -41.9709  -57.0389 H         1 UNK         0.1034 
     83 H83        25.5491  -42.9244  -58.7258 H         1 UNK         0.0482 
     84 H84        27.2107  -43.1852  -61.8675 H         1 UNK         0.3460 
     85 H85        26.3913  -42.0814  -60.7945 H         1 UNK         0.3460 
     86 H86        27.0085  -45.0156  -57.2588 H         1 UNK         0.2989 
     87 H87        25.3598  -46.3637  -55.9057 H         1 UNK         0.0559 
     88 H88        23.3729  -47.6251  -57.8713 H         1 UNK         0.0848 
     89 H89        22.9722  -46.7256  -56.4176 H         1 UNK         0.0848 
     90 H90        23.7980  -48.2710  -56.2867 H         1 UNK         0.0848 
     91 H91        26.9559  -47.5985  -56.7953 H         1 UNK         0.3144 
     92 H92        27.2953  -49.5836  -59.7355 H         1 UNK         0.0727 
     93 H93        29.6189  -48.6520  -59.4149 H         1 UNK         0.0790 
     94 H94        28.9273  -47.2784  -58.5510 H         1 UNK         0.0790 
     95 H95        28.5277  -47.5469  -60.2351 H         1 UNK         0.0790 
     96 H96        28.2011  -49.2086  -56.9079 H         1 UNK         0.3215 
     97 H97        27.2123  -52.5230  -56.0921 H         1 UNK         0.0863 
     98 H98        29.5470  -52.6709  -55.2359 H         1 UNK         0.0808 
     99 H99        30.0407  -51.3637  -56.3117 H         1 UNK         0.0808 
    100 H100       29.4927  -52.8934  -56.9766 H         1 UNK         0.0808 
    101 H101       28.4568  -50.4926  -54.5310 H         1 UNK         0.3118 
    102 H102       25.3645  -49.0425  -53.3815 H         1 UNK         0.0546 
    103 H103       25.5222  -51.2074  -52.1637 H         1 UNK         0.0828 
    104 H104       26.1927  -49.9005  -51.2013 H         1 UNK         0.0828 
    105 H105       27.2669  -51.0291  -52.0260 H         1 UNK         0.0828 
    106 H106       28.3630  -48.9872  -53.2695 H         1 UNK         0.3005 
    107 H107       28.3720  -45.4801  -53.6453 H         1 UNK         0.1257 
    108 H108       28.9448  -47.1606  -51.1574 H         1 UNK         0.0775 
    109 H109       28.3384  -45.5345  -51.2258 H         1 UNK         0.0775 
    110 H110       29.5682  -43.5577  -51.1876 H         1 UNK         0.0840 
    111 H111       31.2207  -43.4657  -50.6485 H         1 UNK         0.0840 
    112 H112       30.5434  -47.1594  -53.5228 H         1 UNK         0.2987 
    113 H113       30.4537  -48.9222  -56.5495 H         1 UNK         0.0785 
    114 H114       31.0601  -46.6146  -57.3597 H         1 UNK         0.0798 
    115 H115       32.4530  -47.6665  -57.2018 H         1 UNK         0.0798 
    116 H116       32.1344  -46.4287  -55.9837 H         1 UNK         0.0798 
    117 H117       32.6578  -48.7378  -54.9833 H         1 UNK         0.3079 
    118 H118       31.8067  -50.7355  -52.1683 H         1 UNK         0.0794 
    119 H119       33.1579  -51.7019  -54.7454 H         1 UNK         0.0786 
    120 H120       31.7790  -52.4652  -53.9623 H         1 UNK         0.0786 
    121 H121       33.3354  -52.4332  -53.1507 H         1 UNK         0.0786 
    122 H122       33.9126  -49.2608  -53.6968 H         1 UNK         0.3032 
    123 H123       35.4574  -48.2933  -50.6929 H         1 UNK         0.1094 
    124 H124       37.5946  -49.2049  -51.5917 H         1 UNK         0.0794 
    125 H125       36.6235  -50.4918  -50.8977 H         1 UNK         0.0794 
    126 H126       36.7064  -50.3086  -52.6441 H         1 UNK         0.0794 
    127 H127       36.1261  -48.0829  -53.5204 H         1 UNK         0.3016 
@<TRIPOS>BOND
     1    1    2 1    
     2    1   67 1    
     3    1   68 1    
     4    1   69 1    
     5    2    3 2    
     6    2    4 am   BACKBONE|DICT|INTERRES
     7    4    5 1    
     8    4   70 1    
     9    5    6 1    
    10    5   65 1    
    11    5   71 1    
    12    6    7 1    
    13    6   72 1    
    14    6   73 1    
    15    7    8 1    
    16    8    9 1    
    17    8   74 1    
    18    8   75 1    
    19    9   10 ar   
    20    9   14 ar   
    21   10   11 ar   
    22   10   76 1    
    23   11   12 ar   
    24   11   48 1    
    25   12   13 ar   
    26   12   77 1    
    27   13   14 ar   
    28   13   15 1    
    29   14   78 1    
    30   15   16 1    
    31   15   79 1    
    32   15   80 1    
    33   16   17 1    
    34   17   18 1    
    35   17   81 1    
    36   17   82 1    
    37   18   19 1    
    38   18   22 1    
    39   18   83 1    
    40   19   20 am   BACKBONE|DICT|INTERRES
    41   19   21 2    
    42   20   84 1    
    43   20   85 1    
    44   22   23 am   BACKBONE|DICT|INTERRES
    45   22   86 1    
    46   23   24 2    
    47   23   25 1    
    48   25   26 1    
    49   25   27 1    
    50   25   87 1    
    51   26   88 1    
    52   26   89 1    
    53   26   90 1    
    54   27   28 am   BACKBONE|DICT|INTERRES
    55   27   91 1    
    56   28   29 2    
    57   28   30 1    
    58   30   31 1    
    59   30   32 1    
    60   30   92 1    
    61   31   93 1    
    62   31   94 1    
    63   31   95 1    
    64   32   33 am   BACKBONE|DICT|INTERRES
    65   32   96 1    
    66   33   34 2    
    67   33   35 1    
    68   35   36 1    
    69   35   37 1    
    70   35   97 1    
    71   36   98 1    
    72   36   99 1    
    73   36  100 1    
    74   37   38 am   BACKBONE|DICT|INTERRES
    75   37  101 1    
    76   38   39 2    
    77   38   40 1    
    78   40   41 1    
    79   40   42 1    
    80   40  102 1    
    81   41  103 1    
    82   41  104 1    
    83   41  105 1    
    84   42   43 am   BACKBONE|DICT|INTERRES
    85   42  106 1    
    86   43   44 2    
    87   43   45 1    
    88   45   46 1    
    89   45   49 1    
    90   45  107 1    
    91   46   47 1    
    92   46  108 1    
    93   46  109 1    
    94   47   48 1    
    95   48  110 1    
    96   48  111 1    
    97   49   50 am   BACKBONE|DICT|INTERRES
    98   49  112 1    
    99   50   51 2    
   100   50   52 1    
   101   52   53 1    
   102   52   54 1    
   103   52  113 1    
   104   53  114 1    
   105   53  115 1    
   106   53  116 1    
   107   54   55 am   BACKBONE|DICT|INTERRES
   108   54  117 1    
   109   55   56 2    
   110   55   57 1    
   111   57   58 1    
   112   57   59 1    
   113   57  118 1    
   114   58  119 1    
   115   58  120 1    
   116   58  121 1    
   117   59   60 am   BACKBONE|DICT|INTERRES
   118   59  122 1    
   119   60   61 2    
   120   60   62 1    
   121   62   63 1    
   122   62   64 1    
   123   62  123 1    
   124   63  124 1    
   125   63  125 1    
   126   63  126 1    
   127   64   65 am   BACKBONE|DICT|INTERRES
   128   64  127 1    
   129   65   66 2    
@<TRIPOS>SUBSTRUCTURE
     1 UNK         1 GROUP             0       ****    0 ROOT    
