@<TRIPOS>MOLECULE
3R134
127   129    1
SMALL
USER_CHARGES


@<TRIPOS>ATOM
      1 CA         33.0450  -46.7432  -57.5440 C.3       0 UNK        -0.1968 
      2 C          33.7737  -45.9837  -56.4474 C.2       0 UNK         0.4852 
      3 O          34.9251  -45.5867  -56.6330 O.2       0 UNK        -0.5359 
      4 N          33.1158  -45.8170  -55.2939 N.am      1 UNK        -0.4300 
      5 CA         33.5668  -45.1408  -54.0717 C.3       1 UNK         0.0863 
      6 C6         34.0216  -43.6636  -54.2456 C.3       11 UNK        -0.0953 
      7 S7         32.8292  -42.6124  -55.1429 S.3       11 UNK        -0.2369 
      8 C8         31.8547  -41.8889  -53.7862 C.3       11 UNK         0.0226 
      9 C9         30.8481  -42.8882  -53.2401 C.ar      11 UNK        -0.0699 
     10 C10        31.0683  -43.5253  -52.0156 C.ar      11 UNK        -0.0804 
     11 C11        30.1595  -44.4752  -51.5391 C.ar      11 UNK        -0.0871 
     12 C12        29.0102  -44.7593  -52.2813 C.ar      11 UNK        -0.1008 
     13 C13        28.7988  -44.1567  -53.5239 C.ar      11 UNK        -0.0735 
     14 C14        29.7086  -43.2021  -53.9854 C.ar      11 UNK        -0.0945 
     15 C15        27.6164  -44.5735  -54.3874 C.3       11 UNK         0.0169 
     16 S16        27.9080  -46.1939  -55.1736 S.3       11 UNK        -0.2669 
     17 C17        29.2759  -45.8257  -56.3291 C.3       11 UNK        -0.0850 
     18 CA         28.9551  -46.0721  -57.8279 C.3       10 UNK         0.0855 
     19 C          29.0194  -47.5719  -58.2417 C.2       10 UNK         0.5543 
     20 N          28.1064  -48.0859  -59.0573 N.am      10 UNK        -0.7343 
     21 O          29.9350  -48.2828  -57.8392 O.2       10 UNK        -0.5027 
     22 N          27.7280  -45.3798  -58.2528 N.am      10 UNK        -0.4495 
     23 C          27.5766  -44.7407  -59.4196 C.2       10 UNK         0.4903 
     24 O          28.4883  -44.5755  -60.2322 O.2       10 UNK        -0.4860 
     25 CA         26.1620  -44.2082  -59.7340 C.3       9 UNK         0.0227 
     26 CB         25.9938  -43.8027  -61.2140 C.3       9 UNK        -0.1964 
     27 N          25.0856  -45.1254  -59.3328 N.am      9 UNK        -0.4231 
     28 C          24.9338  -46.4059  -59.7017 C.2       9 UNK         0.5014 
     29 O          25.7157  -47.0183  -60.4320 O.2       9 UNK        -0.5270 
     30 CA         23.7157  -47.1435  -59.1213 C.3       8 UNK         0.0284 
     31 CB         22.8867  -47.8103  -60.2327 C.3       8 UNK        -0.1977 
     32 N          24.1265  -48.1559  -58.1463 N.am      8 UNK        -0.4342 
     33 C          24.7227  -47.8859  -56.9787 C.2       8 UNK         0.5039 
     34 O          24.9696  -46.7413  -56.5882 O.2       8 UNK        -0.5547 
     35 CA         25.0896  -49.0904  -56.1018 C.3       7 UNK         0.0281 
     36 CB         26.2915  -49.8675  -56.6653 C.3       7 UNK        -0.1963 
     37 N          25.4219  -48.6143  -54.7639 N.am      7 UNK        -0.4444 
     38 C          25.0906  -49.2130  -53.6171 C.2       7 UNK         0.5104 
     39 O          24.4819  -50.2831  -53.5515 O.2       7 UNK        -0.5100 
     40 CA         25.5203  -48.4779  -52.3324 C.3       6 UNK         0.0396 
     41 CB         25.1530  -49.2461  -51.0445 C.3       6 UNK        -0.1801 
     42 N          26.9431  -48.1097  -52.3316 N.am      6 UNK        -0.4747 
     43 C          27.9956  -48.9409  -52.3998 C.2       6 UNK         0.5012 
     44 O          27.9014  -50.1682  -52.4967 O.2       6 UNK        -0.5003 
     45 CA         29.3885  -48.2915  -52.2782 C.3       5 UNK         0.0782 
     46 C46        29.6577  -47.8987  -50.8000 C.3       11 UNK        -0.0868 
     47 S47        31.1487  -46.8721  -50.5703 S.3       11 UNK        -0.2515 
     48 C48        30.4414  -45.2211  -50.2436 C.3       11 UNK         0.0199 
     49 N          30.3678  -49.2516  -52.7844 N.am      5 UNK        -0.4607 
     50 C          31.2908  -49.0111  -53.7178 C.2       4 UNK         0.5031 
     51 O          31.5229  -47.9043  -54.2095 O.2       4 UNK        -0.5119 
     52 CA         32.0463  -50.2407  -54.2299 C.3       4 UNK         0.0263 
     53 CB         31.2190  -50.9462  -55.3245 C.3       4 UNK        -0.1967 
     54 N          33.3463  -49.8304  -54.7558 N.am      4 UNK        -0.4237 
     55 C          34.3571  -50.6582  -55.0504 C.2       3 UNK         0.4908 
     56 O          34.3195  -51.8763  -54.8712 O.2       3 UNK        -0.5102 
     57 CA         35.6232  -50.0367  -55.6619 C.3       3 UNK         0.0241 
     58 CB         35.4789  -49.9182  -57.1879 C.3       3 UNK        -0.1971 
     59 N          35.9547  -48.7265  -55.0996 N.am      3 UNK        -0.4139 
     60 C          36.5326  -48.5399  -53.9036 C.2       2 UNK         0.5016 
     61 O          36.8323  -49.4525  -53.1333 O.2       2 UNK        -0.5319 
     62 CA         36.8313  -47.0863  -53.5043 C.3       2 UNK         0.0286 
     63 CB         38.1845  -46.6328  -54.0754 C.3       2 UNK        -0.1963 
     64 N          35.7803  -46.1810  -53.9686 N.am      2 UNK        -0.4790 
     65 C          34.6228  -45.9775  -53.3288 C.2       1 UNK         0.5024 
     66 O          34.3690  -46.4408  -52.2176 O.2       1 UNK        -0.4888 
     67 H67        33.7492  -47.1181  -58.2882 H         1 UNK         0.0892 
     68 H68        32.4965  -47.5942  -57.1358 H         1 UNK         0.0892 
     69 H69        32.3369  -46.0853  -58.0497 H         1 UNK         0.0892 
     70 H70        32.2347  -46.3060  -55.1653 H         1 UNK         0.3107 
     71 H71        32.6873  -45.1397  -53.4288 H         1 UNK         0.0773 
     72 H72        34.2229  -43.2153  -53.2713 H         1 UNK         0.0680 
     73 H73        34.9639  -43.6131  -54.7932 H         1 UNK         0.0680 
     74 H74        31.3227  -41.0148  -54.1644 H         1 UNK         0.0650 
     75 H75        32.5190  -41.5257  -53.0007 H         1 UNK         0.0650 
     76 H76        31.9627  -43.3045  -51.4490 H         1 UNK         0.1397 
     77 H77        28.3022  -45.4853  -51.9129 H         1 UNK         0.1363 
     78 H78        29.5527  -42.7262  -54.9438 H         1 UNK         0.1355 
     79 H79        27.4115  -43.8284  -55.1578 H         1 UNK         0.0707 
     80 H80        26.7176  -44.6336  -53.7721 H         1 UNK         0.0707 
     81 H81        29.5736  -44.7848  -56.2148 H         1 UNK         0.1034 
     82 H82        30.1473  -46.4021  -56.0169 H         1 UNK         0.1034 
     83 H83        29.7913  -45.6282  -58.3708 H         1 UNK         0.0482 
     84 H84        28.1871  -49.0531  -59.3237 H         1 UNK         0.3460 
     85 H85        27.3594  -47.5209  -59.4456 H         1 UNK         0.3460 
     86 H86        26.9233  -45.5153  -57.6538 H         1 UNK         0.2989 
     87 H87        26.0383  -43.3083  -59.1299 H         1 UNK         0.0559 
     88 H88        26.7125  -43.0315  -61.4948 H         1 UNK         0.0848 
     89 H89        24.9994  -43.3997  -61.4052 H         1 UNK         0.0848 
     90 H90        26.1468  -44.6496  -61.8839 H         1 UNK         0.0848 
     91 H91        24.4171  -44.7474  -58.6747 H         1 UNK         0.3144 
     92 H92        23.0733  -46.4228  -58.6103 H         1 UNK         0.0727 
     93 H93        21.9874  -48.2787  -59.8318 H         1 UNK         0.0790 
     94 H94        23.4572  -48.5754  -60.7613 H         1 UNK         0.0790 
     95 H95        22.5658  -47.0754  -60.9722 H         1 UNK         0.0790 
     96 H96        23.9838  -49.1201  -58.4105 H         1 UNK         0.3215 
     97 H97        24.2175  -49.7467  -56.0615 H         1 UNK         0.0863 
     98 H98        26.4785  -50.7724  -56.0871 H         1 UNK         0.0808 
     99 H99        27.2010  -49.2675  -56.6372 H         1 UNK         0.0808 
    100 H100       26.1266  -50.1715  -57.6994 H         1 UNK         0.0808 
    101 H101       25.8670  -47.7037  -54.7472 H         1 UNK         0.3118 
    102 H102       24.9625  -47.5402  -52.3200 H         1 UNK         0.0546 
    103 H103       25.6433  -50.2190  -50.9963 H         1 UNK         0.0828 
    104 H104       24.0782  -49.4231  -50.9898 H         1 UNK         0.0828 
    105 H105       25.4333  -48.6850  -50.1533 H         1 UNK         0.0828 
    106 H106       27.1217  -47.1178  -52.2809 H         1 UNK         0.3005 
    107 H107       29.3992  -47.4009  -52.9083 H         1 UNK         0.1257 
    108 H108       28.8054  -47.3684  -50.3722 H         1 UNK         0.0775 
    109 H109       29.7749  -48.7956  -50.1889 H         1 UNK         0.0775 
    110 H110       29.5348  -45.3001  -49.6423 H         1 UNK         0.0840 
    111 H111       31.1516  -44.6574  -49.6368 H         1 UNK         0.0840 
    112 H112       30.1832  -50.2072  -52.5100 H         1 UNK         0.2987 
    113 H113       32.2085  -50.9235  -53.3930 H         1 UNK         0.0785 
    114 H114       30.2297  -51.2209  -54.9559 H         1 UNK         0.0798 
    115 H115       31.6980  -51.8636  -55.6661 H         1 UNK         0.0798 
    116 H116       31.0740  -50.3012  -56.1924 H         1 UNK         0.0798 
    117 H117       33.4491  -48.8327  -54.8807 H         1 UNK         0.3079 
    118 H118       36.4543  -50.7155  -55.4572 H         1 UNK         0.0794 
    119 H119       36.3887  -49.5281  -57.6449 H         1 UNK         0.0786 
    120 H120       34.6534  -49.2646  -57.4688 H         1 UNK         0.0786 
    121 H121       35.2859  -50.8939  -57.6363 H         1 UNK         0.0786 
    122 H122       35.7669  -47.9167  -55.6725 H         1 UNK         0.3032 
    123 H123       36.8894  -47.0445  -52.4138 H         1 UNK         0.1094 
    124 H124       38.1904  -46.6437  -55.1661 H         1 UNK         0.0794 
    125 H125       38.4323  -45.6225  -53.7493 H         1 UNK         0.0794 
    126 H126       38.9890  -47.2878  -53.7376 H         1 UNK         0.0794 
    127 H127       35.8670  -45.7919  -54.9038 H         1 UNK         0.3016 
@<TRIPOS>BOND
     1    1    2 1    
     2    1   67 1    
     3    1   68 1    
     4    1   69 1    
     5    2    3 2    
     6    2    4 am   BACKBONE|DICT|INTERRES
     7    4    5 1    
     8    4   70 1    
     9    5    6 1    
    10    5   65 1    
    11    5   71 1    
    12    6    7 1    
    13    6   72 1    
    14    6   73 1    
    15    7    8 1    
    16    8    9 1    
    17    8   74 1    
    18    8   75 1    
    19    9   10 ar   
    20    9   14 ar   
    21   10   11 ar   
    22   10   76 1    
    23   11   12 ar   
    24   11   48 1    
    25   12   13 ar   
    26   12   77 1    
    27   13   14 ar   
    28   13   15 1    
    29   14   78 1    
    30   15   16 1    
    31   15   79 1    
    32   15   80 1    
    33   16   17 1    
    34   17   18 1    
    35   17   81 1    
    36   17   82 1    
    37   18   19 1    
    38   18   22 1    
    39   18   83 1    
    40   19   20 am   BACKBONE|DICT|INTERRES
    41   19   21 2    
    42   20   84 1    
    43   20   85 1    
    44   22   23 am   BACKBONE|DICT|INTERRES
    45   22   86 1    
    46   23   24 2    
    47   23   25 1    
    48   25   26 1    
    49   25   27 1    
    50   25   87 1    
    51   26   88 1    
    52   26   89 1    
    53   26   90 1    
    54   27   28 am   BACKBONE|DICT|INTERRES
    55   27   91 1    
    56   28   29 2    
    57   28   30 1    
    58   30   31 1    
    59   30   32 1    
    60   30   92 1    
    61   31   93 1    
    62   31   94 1    
    63   31   95 1    
    64   32   33 am   BACKBONE|DICT|INTERRES
    65   32   96 1    
    66   33   34 2    
    67   33   35 1    
    68   35   36 1    
    69   35   37 1    
    70   35   97 1    
    71   36   98 1    
    72   36   99 1    
    73   36  100 1    
    74   37   38 am   BACKBONE|DICT|INTERRES
    75   37  101 1    
    76   38   39 2    
    77   38   40 1    
    78   40   41 1    
    79   40   42 1    
    80   40  102 1    
    81   41  103 1    
    82   41  104 1    
    83   41  105 1    
    84   42   43 am   BACKBONE|DICT|INTERRES
    85   42  106 1    
    86   43   44 2    
    87   43   45 1    
    88   45   46 1    
    89   45   49 1    
    90   45  107 1    
    91   46   47 1    
    92   46  108 1    
    93   46  109 1    
    94   47   48 1    
    95   48  110 1    
    96   48  111 1    
    97   49   50 am   BACKBONE|DICT|INTERRES
    98   49  112 1    
    99   50   51 2    
   100   50   52 1    
   101   52   53 1    
   102   52   54 1    
   103   52  113 1    
   104   53  114 1    
   105   53  115 1    
   106   53  116 1    
   107   54   55 am   BACKBONE|DICT|INTERRES
   108   54  117 1    
   109   55   56 2    
   110   55   57 1    
   111   57   58 1    
   112   57   59 1    
   113   57  118 1    
   114   58  119 1    
   115   58  120 1    
   116   58  121 1    
   117   59   60 am   BACKBONE|DICT|INTERRES
   118   59  122 1    
   119   60   61 2    
   120   60   62 1    
   121   62   63 1    
   122   62   64 1    
   123   62  123 1    
   124   63  124 1    
   125   63  125 1    
   126   63  126 1    
   127   64   65 am   BACKBONE|DICT|INTERRES
   128   64  127 1    
   129   65   66 2    
@<TRIPOS>SUBSTRUCTURE
     1 UNK         1 GROUP             0       ****    0 ROOT    
