@<TRIPOS>MOLECULE
3R134
127   129    1
SMALL
USER_CHARGES


@<TRIPOS>ATOM
      1 CA         37.3819  -47.0330  -54.1302 C.3       0 UNK        -0.1968 
      2 C          36.0260  -47.3142  -53.5017 C.2       0 UNK         0.4852 
      3 O          35.6582  -48.4792  -53.3498 O.2       0 UNK        -0.5359 
      4 N          35.2963  -46.2577  -53.1140 N.am      1 UNK        -0.4300 
      5 CA         33.9333  -46.2830  -52.5568 C.3       1 UNK         0.0863 
      6 C6         33.4407  -44.8614  -52.1900 C.3       11 UNK        -0.0953 
      7 S7         33.5313  -43.6900  -53.5859 S.3       11 UNK        -0.2369 
      8 C8         31.9461  -42.8100  -53.4376 C.3       11 UNK         0.0226 
      9 C9         30.8091  -43.5698  -54.1035 C.ar      11 UNK        -0.0699 
     10 C10        29.9494  -44.3759  -53.3487 C.ar      11 UNK        -0.0804 
     11 C11        28.8842  -45.0430  -53.9620 C.ar      11 UNK        -0.0871 
     12 C12        28.6795  -44.8906  -55.3356 C.ar      11 UNK        -0.1008 
     13 C13        29.5415  -44.1043  -56.1012 C.ar      11 UNK        -0.0735 
     14 C14        30.6039  -43.4430  -55.4811 C.ar      11 UNK        -0.0945 
     15 C15        29.3269  -43.9955  -57.5998 C.3       11 UNK         0.0169 
     16 S16        28.0869  -42.7289  -58.0109 S.3       11 UNK        -0.2669 
     17 C17        27.0816  -43.5844  -59.2781 C.3       11 UNK        -0.0850 
     18 CA         25.5621  -43.5292  -58.9753 C.3       10 UNK         0.0855 
     19 C          24.7306  -44.1565  -60.1333 C.2       10 UNK         0.5543 
     20 N          23.8684  -45.1386  -59.8944 N.am      10 UNK        -0.7343 
     21 O          24.8618  -43.7310  -61.2782 O.2       10 UNK        -0.5027 
     22 N          25.2435  -44.0821  -57.6497 N.am      10 UNK        -0.4495 
     23 C          24.2303  -43.6605  -56.8806 C.2       10 UNK         0.4903 
     24 O          23.5093  -42.7041  -57.1712 O.2       10 UNK        -0.4860 
     25 CA         23.9717  -44.4328  -55.5676 C.3       9 UNK         0.0227 
     26 CB         22.5106  -44.3053  -55.0855 C.3       9 UNK        -0.1964 
     27 N          24.3703  -45.8455  -55.6168 N.am      9 UNK        -0.4231 
     28 C          23.9559  -46.7718  -56.4925 C.2       9 UNK         0.5014 
     29 O          23.1383  -46.5689  -57.3933 O.2       9 UNK        -0.5270 
     30 CA         24.6129  -48.1544  -56.3674 C.3       8 UNK         0.0284 
     31 CB         23.5672  -49.2319  -56.0365 C.3       8 UNK        -0.1977 
     32 N          25.3291  -48.5255  -57.5899 N.am      8 UNK        -0.4342 
     33 C          26.3437  -47.8370  -58.1298 C.2       8 UNK         0.5039 
     34 O          26.7764  -46.7776  -57.6681 O.2       8 UNK        -0.5547 
     35 CA         26.9880  -48.4566  -59.3790 C.3       7 UNK         0.0281 
     36 CB         26.4832  -47.7940  -60.6767 C.3       7 UNK        -0.1963 
     37 N          28.4486  -48.4576  -59.2359 N.am      7 UNK        -0.4444 
     38 C          29.3364  -47.4843  -59.4789 C.2       7 UNK         0.5104 
     39 O          29.1099  -46.4634  -60.1290 O.2       7 UNK        -0.5100 
     40 CA         30.7222  -47.6919  -58.8354 C.3       6 UNK         0.0396 
     41 CB         31.7610  -46.6575  -59.3067 C.3       6 UNK        -0.1801 
     42 N          30.6355  -47.6476  -57.3707 N.am      6 UNK        -0.4747 
     43 C          30.1992  -48.6504  -56.5963 C.2       6 UNK         0.5012 
     44 O          29.8291  -49.7401  -57.0433 O.2       6 UNK        -0.5003 
     45 CA         30.1387  -48.4002  -55.0776 C.3       5 UNK         0.0782 
     46 C46        28.6725  -48.2432  -54.6046 C.3       11 UNK        -0.0868 
     47 S47        28.5946  -47.5993  -52.8986 S.3       11 UNK        -0.2515 
     48 C48        27.9427  -45.9149  -53.1433 C.3       11 UNK         0.0199 
     49 N          30.8020  -49.5080  -54.3871 N.am      5 UNK        -0.4607 
     50 C          32.1243  -49.6952  -54.3494 C.2       4 UNK         0.5031 
     51 O          32.9450  -48.8920  -54.7936 O.2       4 UNK        -0.5119 
     52 CA         32.5976  -51.0352  -53.7803 C.3       4 UNK         0.0263 
     53 CB         32.7783  -52.0603  -54.9177 C.3       4 UNK        -0.1967 
     54 N          33.8486  -50.8571  -53.0459 N.am      4 UNK        -0.4237 
     55 C          34.3377  -51.7382  -52.1617 C.2       3 UNK         0.4908 
     56 O          33.7978  -52.8125  -51.8933 O.2       3 UNK        -0.5102 
     57 CA         35.6304  -51.3548  -51.4300 C.3       3 UNK         0.0241 
     58 CB         36.8548  -51.4879  -52.3520 C.3       3 UNK        -0.1971 
     59 N          35.5382  -49.9942  -50.9033 N.am      3 UNK        -0.4139 
     60 C          35.0206  -49.6833  -49.7057 C.2       2 UNK         0.5016 
     61 O          34.6446  -50.5215  -48.8850 O.2       2 UNK        -0.5319 
     62 CA         34.9027  -48.1907  -49.3451 C.3       2 UNK         0.0286 
     63 CB         36.0839  -47.7569  -48.4619 C.3       2 UNK        -0.1963 
     64 N          34.8309  -47.3097  -50.5124 N.am      2 UNK        -0.4790 
     65 C          33.7747  -47.2116  -51.3335 C.2       1 UNK         0.5024 
     66 O          32.7186  -47.8206  -51.1626 O.2       1 UNK        -0.4888 
     67 H67        38.1708  -47.5052  -53.5455 H         1 UNK         0.0892 
     68 H68        37.4158  -47.4406  -55.1401 H         1 UNK         0.0892 
     69 H69        37.5929  -45.9653  -54.1874 H         1 UNK         0.0892 
     70 H70        35.6624  -45.3299  -53.2745 H         1 UNK         0.3107 
     71 H71        33.2812  -46.6750  -53.3393 H         1 UNK         0.0773 
     72 H72        32.4130  -44.9062  -51.8267 H         1 UNK         0.0680 
     73 H73        34.0327  -44.4476  -51.3712 H         1 UNK         0.0680 
     74 H74        32.0489  -41.8304  -53.9068 H         1 UNK         0.0650 
     75 H75        31.7236  -42.6173  -52.3869 H         1 UNK         0.0650 
     76 H76        30.1023  -44.4801  -52.2834 H         1 UNK         0.1397 
     77 H77        27.8501  -45.3868  -55.8188 H         1 UNK         0.1363 
     78 H78        31.2702  -42.8261  -56.0688 H         1 UNK         0.1355 
     79 H79        29.0200  -44.9725  -57.9682 H         1 UNK         0.0707 
     80 H80        30.2613  -43.7547  -58.1081 H         1 UNK         0.0707 
     81 H81        27.2970  -43.1141  -60.2393 H         1 UNK         0.1034 
     82 H82        27.3929  -44.6239  -59.3816 H         1 UNK         0.1034 
     83 H83        25.2899  -42.4721  -58.9712 H         1 UNK         0.0482 
     84 H84        23.3360  -45.5179  -60.6603 H         1 UNK         0.3460 
     85 H85        23.7234  -45.4988  -58.9568 H         1 UNK         0.3460 
     86 H86        25.7713  -44.9054  -57.3813 H         1 UNK         0.2989 
     87 H87        24.6093  -43.9645  -54.8163 H         1 UNK         0.0559 
     88 H88        22.2430  -43.2625  -54.9104 H         1 UNK         0.0848 
     89 H89        22.3530  -44.8383  -54.1480 H         1 UNK         0.0848 
     90 H90        21.8082  -44.7023  -55.8193 H         1 UNK         0.0848 
     91 H91        25.0630  -46.1217  -54.9363 H         1 UNK         0.3144 
     92 H92        25.3434  -48.1310  -55.5557 H         1 UNK         0.0727 
     93 H93        24.0329  -50.2058  -55.8838 H         1 UNK         0.0790 
     94 H94        22.8262  -49.3333  -56.8307 H         1 UNK         0.0790 
     95 H95        23.0294  -48.9843  -55.1202 H         1 UNK         0.0790 
     96 H96        25.0121  -49.3649  -58.0530 H         1 UNK         0.3215 
     97 H97        26.7067  -49.5101  -59.4214 H         1 UNK         0.0863 
     98 H98        27.0042  -48.1802  -61.5525 H         1 UNK         0.0808 
     99 H99        26.6075  -46.7110  -60.6584 H         1 UNK         0.0808 
    100 H100       25.4190  -47.9856  -60.8179 H         1 UNK         0.0808 
    101 H101       28.8013  -49.2020  -58.6402 H         1 UNK         0.3118 
    102 H102       31.0816  -48.6773  -59.1402 H         1 UNK         0.0546 
    103 H103       31.4828  -45.6422  -59.0251 H         1 UNK         0.0828 
    104 H104       31.8640  -46.6767  -60.3924 H         1 UNK         0.0828 
    105 H105       32.7452  -46.8641  -58.8860 H         1 UNK         0.0828 
    106 H106       30.8929  -46.7724  -56.9369 H         1 UNK         0.3005 
    107 H107       30.6806  -47.4772  -54.8552 H         1 UNK         0.1257 
    108 H108       28.1078  -47.5883  -55.2679 H         1 UNK         0.0775 
    109 H109       28.1519  -49.2022  -54.6370 H         1 UNK         0.0775 
    110 H110       26.9626  -45.9719  -53.6178 H         1 UNK         0.0840 
    111 H111       27.7771  -45.4574  -52.1667 H         1 UNK         0.0840 
    112 H112       30.1935  -50.2292  -54.0292 H         1 UNK         0.2987 
    113 H113       31.8386  -51.4001  -53.0845 H         1 UNK         0.0785 
    114 H114       31.8615  -52.1660  -55.4996 H         1 UNK         0.0798 
    115 H115       33.0300  -53.0489  -54.5340 H         1 UNK         0.0798 
    116 H116       33.5681  -51.7570  -55.6061 H         1 UNK         0.0798 
    117 H117       34.3438  -49.9846  -53.2262 H         1 UNK         0.3079 
    118 H118       35.7677  -52.0533  -50.6014 H         1 UNK         0.0794 
    119 H119       37.7750  -51.2340  -51.8258 H         1 UNK         0.0786 
    120 H120       36.7831  -50.8446  -53.2291 H         1 UNK         0.0786 
    121 H121       36.9587  -52.5127  -52.7107 H         1 UNK         0.0786 
    122 H122       35.7491  -49.2470  -51.5582 H         1 UNK         0.3032 
    123 H123       33.9816  -48.0699  -48.7699 H         1 UNK         0.1094 
    124 H124       37.0357  -47.8446  -48.9874 H         1 UNK         0.0794 
    125 H125       35.9749  -46.7237  -48.1315 H         1 UNK         0.0794 
    126 H126       36.1488  -48.3759  -47.5658 H         1 UNK         0.0794 
    127 H127       35.6569  -46.7712  -50.7317 H         1 UNK         0.3016 
@<TRIPOS>BOND
     1    1    2 1    
     2    1   67 1    
     3    1   68 1    
     4    1   69 1    
     5    2    3 2    
     6    2    4 am   BACKBONE|DICT|INTERRES
     7    4    5 1    
     8    4   70 1    
     9    5    6 1    
    10    5   65 1    
    11    5   71 1    
    12    6    7 1    
    13    6   72 1    
    14    6   73 1    
    15    7    8 1    
    16    8    9 1    
    17    8   74 1    
    18    8   75 1    
    19    9   10 ar   
    20    9   14 ar   
    21   10   11 ar   
    22   10   76 1    
    23   11   12 ar   
    24   11   48 1    
    25   12   13 ar   
    26   12   77 1    
    27   13   14 ar   
    28   13   15 1    
    29   14   78 1    
    30   15   16 1    
    31   15   79 1    
    32   15   80 1    
    33   16   17 1    
    34   17   18 1    
    35   17   81 1    
    36   17   82 1    
    37   18   19 1    
    38   18   22 1    
    39   18   83 1    
    40   19   20 am   BACKBONE|DICT|INTERRES
    41   19   21 2    
    42   20   84 1    
    43   20   85 1    
    44   22   23 am   BACKBONE|DICT|INTERRES
    45   22   86 1    
    46   23   24 2    
    47   23   25 1    
    48   25   26 1    
    49   25   27 1    
    50   25   87 1    
    51   26   88 1    
    52   26   89 1    
    53   26   90 1    
    54   27   28 am   BACKBONE|DICT|INTERRES
    55   27   91 1    
    56   28   29 2    
    57   28   30 1    
    58   30   31 1    
    59   30   32 1    
    60   30   92 1    
    61   31   93 1    
    62   31   94 1    
    63   31   95 1    
    64   32   33 am   BACKBONE|DICT|INTERRES
    65   32   96 1    
    66   33   34 2    
    67   33   35 1    
    68   35   36 1    
    69   35   37 1    
    70   35   97 1    
    71   36   98 1    
    72   36   99 1    
    73   36  100 1    
    74   37   38 am   BACKBONE|DICT|INTERRES
    75   37  101 1    
    76   38   39 2    
    77   38   40 1    
    78   40   41 1    
    79   40   42 1    
    80   40  102 1    
    81   41  103 1    
    82   41  104 1    
    83   41  105 1    
    84   42   43 am   BACKBONE|DICT|INTERRES
    85   42  106 1    
    86   43   44 2    
    87   43   45 1    
    88   45   46 1    
    89   45   49 1    
    90   45  107 1    
    91   46   47 1    
    92   46  108 1    
    93   46  109 1    
    94   47   48 1    
    95   48  110 1    
    96   48  111 1    
    97   49   50 am   BACKBONE|DICT|INTERRES
    98   49  112 1    
    99   50   51 2    
   100   50   52 1    
   101   52   53 1    
   102   52   54 1    
   103   52  113 1    
   104   53  114 1    
   105   53  115 1    
   106   53  116 1    
   107   54   55 am   BACKBONE|DICT|INTERRES
   108   54  117 1    
   109   55   56 2    
   110   55   57 1    
   111   57   58 1    
   112   57   59 1    
   113   57  118 1    
   114   58  119 1    
   115   58  120 1    
   116   58  121 1    
   117   59   60 am   BACKBONE|DICT|INTERRES
   118   59  122 1    
   119   60   61 2    
   120   60   62 1    
   121   62   63 1    
   122   62   64 1    
   123   62  123 1    
   124   63  124 1    
   125   63  125 1    
   126   63  126 1    
   127   64   65 am   BACKBONE|DICT|INTERRES
   128   64  127 1    
   129   65   66 2    
@<TRIPOS>SUBSTRUCTURE
     1 UNK         1 GROUP             0       ****    0 ROOT    
