@<TRIPOS>MOLECULE
3R134
127   129    1
SMALL
USER_CHARGES


@<TRIPOS>ATOM
      1 CA         38.9873  -45.2635  -51.2820 C.3       0 UNK        -0.1968 
      2 C          37.6124  -45.9085  -51.1843 C.2       0 UNK         0.4852 
      3 O          37.3729  -46.6899  -50.2629 O.2       0 UNK        -0.5359 
      4 N          36.7158  -45.5843  -52.1281 N.am      1 UNK        -0.4300 
      5 CA         35.3426  -46.0963  -52.2351 C.3       1 UNK         0.0863 
      6 C6         34.4353  -45.6357  -51.0563 C.3       11 UNK        -0.0953 
      7 S7         32.6848  -45.4808  -51.5454 S.3       11 UNK        -0.2369 
      8 C8         32.6306  -43.7550  -52.1123 C.3       11 UNK         0.0226 
      9 C9         31.4740  -43.5224  -53.0730 C.ar      11 UNK        -0.0699 
     10 C10        30.2161  -43.1382  -52.5953 C.ar      11 UNK        -0.0804 
     11 C11        29.1648  -42.8905  -53.4854 C.ar      11 UNK        -0.0871 
     12 C12        29.3850  -43.0250  -54.8594 C.ar      11 UNK        -0.1008 
     13 C13        30.6242  -43.4457  -55.3450 C.ar      11 UNK        -0.0735 
     14 C14        31.6688  -43.6840  -54.4487 C.ar      11 UNK        -0.0945 
     15 C15        30.8150  -43.6606  -56.8373 C.3       11 UNK         0.0169 
     16 S16        30.2516  -45.3224  -57.3082 S.3       11 UNK        -0.2669 
     17 C17        30.1113  -45.1669  -59.1190 C.3       11 UNK        -0.0850 
     18 CA         28.6651  -44.8668  -59.6016 C.3       10 UNK         0.0855 
     19 C          28.6304  -44.8149  -61.1573 C.2       10 UNK         0.5543 
     20 N          28.0858  -45.8162  -61.8397 N.am      10 UNK        -0.7343 
     21 O          29.1105  -43.8519  -61.7494 O.2       10 UNK        -0.5027 
     22 N          27.6863  -45.7856  -58.9985 N.am      10 UNK        -0.4495 
     23 C          26.3525  -45.6856  -59.0774 C.2       10 UNK         0.4903 
     24 O          25.7728  -44.7285  -59.5914 O.2       10 UNK        -0.4860 
     25 CA         25.5186  -46.8365  -58.4687 C.3       9 UNK         0.0227 
     26 CB         24.3277  -47.2241  -59.3705 C.3       9 UNK        -0.1964 
     27 N          26.3022  -48.0270  -58.0942 N.am      9 UNK        -0.4231 
     28 C          27.0164  -48.8196  -58.9102 C.2       9 UNK         0.5014 
     29 O          27.0723  -48.6714  -60.1319 O.2       9 UNK        -0.5270 
     30 CA         27.8748  -49.9150  -58.2601 C.3       8 UNK         0.0284 
     31 CB         29.3604  -49.5173  -58.3306 C.3       8 UNK        -0.1977 
     32 N          27.5338  -50.1603  -56.8567 N.am      8 UNK        -0.4342 
     33 C          26.7472  -51.1516  -56.4222 C.2       8 UNK         0.5039 
     34 O          26.1263  -51.9101  -57.1678 O.2       8 UNK        -0.5547 
     35 CA         26.6582  -51.3529  -54.9033 C.3       7 UNK         0.0281 
     36 CB         27.9752  -51.9324  -54.3567 C.3       7 UNK        -0.1963 
     37 N          26.3469  -50.1108  -54.1902 N.am      7 UNK        -0.4444 
     38 C          25.2908  -49.9484  -53.3791 C.2       7 UNK         0.5104 
     39 O          24.4249  -50.8068  -53.2036 O.2       7 UNK        -0.5100 
     40 CA         25.1775  -48.6243  -52.5959 C.3       6 UNK         0.0396 
     41 CB         25.5793  -48.8399  -51.1277 C.3       6 UNK        -0.1801 
     42 N          25.9765  -47.5276  -53.1447 N.am      6 UNK        -0.4747 
     43 C          25.7200  -46.8946  -54.2969 C.2       6 UNK         0.5012 
     44 O          24.7582  -47.1568  -55.0181 O.2       6 UNK        -0.5003 
     45 CA         26.7310  -45.8190  -54.7476 C.3       5 UNK         0.0782 
     46 C46        26.2437  -44.3956  -54.3616 C.3       11 UNK        -0.0868 
     47 S47        26.6899  -43.8761  -52.6627 S.3       11 UNK        -0.2515 
     48 C48        27.7987  -42.4589  -52.9670 C.3       11 UNK         0.0199 
     49 N          28.1114  -46.0826  -54.3177 N.am      5 UNK        -0.4607 
     50 C          28.8179  -47.1896  -54.5708 C.2       4 UNK         0.5031 
     51 O          28.3813  -48.1609  -55.1948 O.2       4 UNK        -0.5119 
     52 CA         30.2138  -47.2581  -53.9570 C.3       4 UNK         0.0263 
     53 CB         30.1353  -47.8733  -52.5495 C.3       4 UNK        -0.1967 
     54 N          31.0651  -48.0957  -54.7966 N.am      4 UNK        -0.4237 
     55 C          32.3161  -47.7913  -55.1523 C.2       3 UNK         0.4908 
     56 O          32.8965  -46.7471  -54.8437 O.2       3 UNK        -0.5102 
     57 CA         33.0685  -48.8317  -55.9893 C.3       3 UNK         0.0241 
     58 CB         33.0800  -48.4300  -57.4737 C.3       3 UNK        -0.1971 
     59 N          34.4336  -48.8454  -55.4765 N.am      3 UNK        -0.4139 
     60 C          34.9852  -49.8308  -54.7602 C.2       2 UNK         0.5016 
     61 O          34.5345  -50.9747  -54.6888 O.2       2 UNK        -0.5319 
     62 CA         36.2315  -49.4487  -53.9395 C.3       2 UNK         0.0286 
     63 CB         37.5123  -49.6489  -54.7654 C.3       2 UNK        -0.1963 
     64 N          36.1771  -48.0653  -53.4455 N.am      2 UNK        -0.4790 
     65 C          35.3118  -47.6190  -52.5181 C.2       1 UNK         0.5024 
     66 O          34.5330  -48.3581  -51.9130 O.2       1 UNK        -0.4888 
     67 H67        39.1970  -44.6897  -50.3796 H         1 UNK         0.0892 
     68 H68        39.0646  -44.5909  -52.1361 H         1 UNK         0.0892 
     69 H69        39.7547  -46.0303  -51.3843 H         1 UNK         0.0892 
     70 H70        36.9874  -44.9324  -52.8515 H         1 UNK         0.3107 
     71 H71        34.9530  -45.6345  -53.1441 H         1 UNK         0.0773 
     72 H72        34.5130  -46.3158  -50.2062 H         1 UNK         0.0680 
     73 H73        34.7626  -44.6644  -50.6818 H         1 UNK         0.0680 
     74 H74        32.5485  -43.0940  -51.2484 H         1 UNK         0.0650 
     75 H75        33.5700  -43.5017  -52.6061 H         1 UNK         0.0650 
     76 H76        30.0588  -43.0261  -51.5311 H         1 UNK         0.1397 
     77 H77        28.5894  -42.8219  -55.5613 H         1 UNK         0.1363 
     78 H78        32.6300  -44.0124  -54.8203 H         1 UNK         0.1355 
     79 H79        31.8631  -43.5387  -57.1148 H         1 UNK         0.0707 
     80 H80        30.2524  -42.9092  -57.3937 H         1 UNK         0.0707 
     81 H81        30.4671  -46.1031  -59.5539 H         1 UNK         0.1034 
     82 H82        30.8011  -44.3958  -59.4682 H         1 UNK         0.1034 
     83 H83        28.4037  -43.8654  -59.2545 H         1 UNK         0.0482 
     84 H84        27.7000  -46.6145  -61.3552 H         1 UNK         0.3460 
     85 H85        28.0656  -45.7772  -62.8463 H         1 UNK         0.3460 
     86 H86        28.0772  -46.5952  -58.5430 H         1 UNK         0.2989 
     87 H87        25.1022  -46.4413  -57.5428 H         1 UNK         0.0559 
     88 H88        24.6544  -47.5595  -60.3551 H         1 UNK         0.0848 
     89 H89        23.6597  -46.3758  -59.5245 H         1 UNK         0.0848 
     90 H90        23.7350  -48.0219  -58.9232 H         1 UNK         0.0848 
     91 H91        26.3219  -48.2452  -57.1078 H         1 UNK         0.3144 
     92 H92        27.7381  -50.8284  -58.8431 H         1 UNK         0.0727 
     93 H93        29.9998  -50.3005  -57.9229 H         1 UNK         0.0790 
     94 H94        29.5601  -48.5988  -57.7766 H         1 UNK         0.0790 
     95 H95        29.6748  -49.3507  -59.3620 H         1 UNK         0.0790 
     96 H96        27.9699  -49.5367  -56.1776 H         1 UNK         0.3215 
     97 H97        25.8771  -52.0972  -54.7331 H         1 UNK         0.0863 
     98 H98        27.8848  -52.1847  -53.3001 H         1 UNK         0.0808 
     99 H99        28.8045  -51.2317  -54.4614 H         1 UNK         0.0808 
    100 H100       28.2499  -52.8468  -54.8846 H         1 UNK         0.0808 
    101 H101       26.9922  -49.3378  -54.3061 H         1 UNK         0.3118 
    102 H102       24.1284  -48.3219  -52.6198 H         1 UNK         0.0546 
    103 H103       24.9784  -49.6267  -50.6692 H         1 UNK         0.0828 
    104 H104       25.4286  -47.9361  -50.5370 H         1 UNK         0.0828 
    105 H105       26.6256  -49.1338  -51.0340 H         1 UNK         0.0828 
    106 H106       26.7840  -47.2364  -52.6128 H         1 UNK         0.3005 
    107 H107       26.7471  -45.8693  -55.8374 H         1 UNK         0.1257 
    108 H108       25.1602  -44.3082  -54.4688 H         1 UNK         0.0775 
    109 H109       26.6369  -43.6745  -55.0751 H         1 UNK         0.0775 
    110 H110       27.3270  -41.7659  -53.6657 H         1 UNK         0.0840 
    111 H111       27.9183  -41.9054  -52.0344 H         1 UNK         0.0840 
    112 H112       28.5452  -45.3356  -53.7914 H         1 UNK         0.2987 
    113 H113       30.6162  -46.2459  -53.8918 H         1 UNK         0.0785 
    114 H114       29.6529  -48.8518  -52.5595 H         1 UNK         0.0798 
    115 H115       29.5690  -47.2320  -51.8730 H         1 UNK         0.0798 
    116 H116       31.1287  -47.9993  -52.1185 H         1 UNK         0.0798 
    117 H117       30.6260  -48.9325  -55.1535 H         1 UNK         0.3079 
    118 H118       32.5961  -49.8102  -55.8787 H         1 UNK         0.0794 
    119 H119       33.5260  -47.4456  -57.6232 H         1 UNK         0.0786 
    120 H120       32.0677  -48.3899  -57.8761 H         1 UNK         0.0786 
    121 H121       33.6414  -49.1470  -58.0728 H         1 UNK         0.0786 
    122 H122       34.8541  -47.9296  -55.3988 H         1 UNK         0.3032 
    123 H123       36.2713  -50.1160  -53.0753 H         1 UNK         0.1094 
    124 H124       38.4037  -49.4519  -54.1695 H         1 UNK         0.0794 
    125 H125       37.5859  -50.6762  -55.1253 H         1 UNK         0.0794 
    126 H126       37.5392  -48.9956  -55.6385 H         1 UNK         0.0794 
    127 H127       36.8118  -47.4036  -53.8692 H         1 UNK         0.3016 
@<TRIPOS>BOND
     1    1    2 1    
     2    1   67 1    
     3    1   68 1    
     4    1   69 1    
     5    2    3 2    
     6    2    4 am   BACKBONE|DICT|INTERRES
     7    4    5 1    
     8    4   70 1    
     9    5    6 1    
    10    5   65 1    
    11    5   71 1    
    12    6    7 1    
    13    6   72 1    
    14    6   73 1    
    15    7    8 1    
    16    8    9 1    
    17    8   74 1    
    18    8   75 1    
    19    9   10 ar   
    20    9   14 ar   
    21   10   11 ar   
    22   10   76 1    
    23   11   12 ar   
    24   11   48 1    
    25   12   13 ar   
    26   12   77 1    
    27   13   14 ar   
    28   13   15 1    
    29   14   78 1    
    30   15   16 1    
    31   15   79 1    
    32   15   80 1    
    33   16   17 1    
    34   17   18 1    
    35   17   81 1    
    36   17   82 1    
    37   18   19 1    
    38   18   22 1    
    39   18   83 1    
    40   19   20 am   BACKBONE|DICT|INTERRES
    41   19   21 2    
    42   20   84 1    
    43   20   85 1    
    44   22   23 am   BACKBONE|DICT|INTERRES
    45   22   86 1    
    46   23   24 2    
    47   23   25 1    
    48   25   26 1    
    49   25   27 1    
    50   25   87 1    
    51   26   88 1    
    52   26   89 1    
    53   26   90 1    
    54   27   28 am   BACKBONE|DICT|INTERRES
    55   27   91 1    
    56   28   29 2    
    57   28   30 1    
    58   30   31 1    
    59   30   32 1    
    60   30   92 1    
    61   31   93 1    
    62   31   94 1    
    63   31   95 1    
    64   32   33 am   BACKBONE|DICT|INTERRES
    65   32   96 1    
    66   33   34 2    
    67   33   35 1    
    68   35   36 1    
    69   35   37 1    
    70   35   97 1    
    71   36   98 1    
    72   36   99 1    
    73   36  100 1    
    74   37   38 am   BACKBONE|DICT|INTERRES
    75   37  101 1    
    76   38   39 2    
    77   38   40 1    
    78   40   41 1    
    79   40   42 1    
    80   40  102 1    
    81   41  103 1    
    82   41  104 1    
    83   41  105 1    
    84   42   43 am   BACKBONE|DICT|INTERRES
    85   42  106 1    
    86   43   44 2    
    87   43   45 1    
    88   45   46 1    
    89   45   49 1    
    90   45  107 1    
    91   46   47 1    
    92   46  108 1    
    93   46  109 1    
    94   47   48 1    
    95   48  110 1    
    96   48  111 1    
    97   49   50 am   BACKBONE|DICT|INTERRES
    98   49  112 1    
    99   50   51 2    
   100   50   52 1    
   101   52   53 1    
   102   52   54 1    
   103   52  113 1    
   104   53  114 1    
   105   53  115 1    
   106   53  116 1    
   107   54   55 am   BACKBONE|DICT|INTERRES
   108   54  117 1    
   109   55   56 2    
   110   55   57 1    
   111   57   58 1    
   112   57   59 1    
   113   57  118 1    
   114   58  119 1    
   115   58  120 1    
   116   58  121 1    
   117   59   60 am   BACKBONE|DICT|INTERRES
   118   59  122 1    
   119   60   61 2    
   120   60   62 1    
   121   62   63 1    
   122   62   64 1    
   123   62  123 1    
   124   63  124 1    
   125   63  125 1    
   126   63  126 1    
   127   64   65 am   BACKBONE|DICT|INTERRES
   128   64  127 1    
   129   65   66 2    
@<TRIPOS>SUBSTRUCTURE
     1 UNK         1 GROUP             0       ****    0 ROOT    
