@<TRIPOS>MOLECULE
3R134
127   129    1
SMALL
USER_CHARGES


@<TRIPOS>ATOM
      1 CA         37.6031  -42.8372  -54.5633 C.3       0 UNK        -0.1968 
      2 C          36.8762  -43.7419  -55.5472 C.2       0 UNK         0.4852 
      3 O          37.4689  -44.1643  -56.5410 O.2       0 UNK        -0.5359 
      4 N          35.5973  -44.0388  -55.2790 N.am      1 UNK        -0.4300 
      5 CA         34.7457  -44.9183  -56.0902 C.3       1 UNK         0.0863 
      6 C6         33.2431  -44.7142  -55.7701 C.3       11 UNK        -0.0953 
      7 S7         32.8293  -44.9769  -54.0091 S.3       11 UNK        -0.2369 
      8 C8         31.4163  -46.1216  -54.0814 C.3       11 UNK         0.0226 
      9 C9         30.1887  -45.5015  -53.4382 C.ar      11 UNK        -0.0699 
     10 C10        30.0808  -45.4451  -52.0462 C.ar      11 UNK        -0.0804 
     11 C11        28.9347  -44.9156  -51.4447 C.ar      11 UNK        -0.0871 
     12 C12        27.9120  -44.3963  -52.2456 C.ar      11 UNK        -0.1008 
     13 C13        28.0118  -44.4508  -53.6386 C.ar      11 UNK        -0.0735 
     14 C14        29.1466  -45.0136  -54.2285 C.ar      11 UNK        -0.0945 
     15 C15        26.8796  -43.9446  -54.5138 C.3       11 UNK         0.0169 
     16 S16        25.7564  -45.3103  -54.9300 S.3       11 UNK        -0.2669 
     17 C17        25.2114  -44.8512  -56.6081 C.3       11 UNK        -0.0850 
     18 CA         26.0238  -45.6149  -57.6931 C.3       10 UNK         0.0855 
     19 C          25.3092  -45.6927  -59.0791 C.2       10 UNK         0.5543 
     20 N          26.0306  -45.8270  -60.1871 N.am      10 UNK        -0.7343 
     21 O          24.0833  -45.6668  -59.1561 O.2       10 UNK        -0.5027 
     22 N          27.4340  -45.1922  -57.7621 N.am      10 UNK        -0.4495 
     23 C          27.8921  -44.0269  -58.2471 C.2       10 UNK         0.4903 
     24 O          27.1705  -43.0683  -58.5224 O.2       10 UNK        -0.4860 
     25 CA         29.4070  -43.9162  -58.5254 C.3       9 UNK         0.0227 
     26 CB         30.1050  -43.0073  -57.4994 C.3       9 UNK        -0.1964 
     27 N          30.0967  -45.2097  -58.5924 N.am      9 UNK        -0.4231 
     28 C          29.8594  -46.1621  -59.5065 C.2       9 UNK         0.5014 
     29 O          29.0792  -46.0268  -60.4510 O.2       9 UNK        -0.5270 
     30 CA         30.5412  -47.5258  -59.2943 C.3       8 UNK         0.0284 
     31 CB         31.8279  -47.4633  -58.4409 C.3       8 UNK        -0.1977 
     32 N          29.5958  -48.5068  -58.7443 N.am      8 UNK        -0.4342 
     33 C          28.8953  -48.4019  -57.6049 C.2       8 UNK         0.5039 
     34 O          28.9786  -47.4465  -56.8271 O.2       8 UNK        -0.5547 
     35 CA         27.9242  -49.5474  -57.2965 C.3       7 UNK         0.0281 
     36 CB         28.6734  -50.8508  -56.9608 C.3       7 UNK        -0.1963 
     37 N          27.0865  -49.1712  -56.1619 N.am      7 UNK        -0.4444 
     38 C          25.8641  -49.6531  -55.9034 C.2       7 UNK         0.5104 
     39 O          25.2710  -50.4216  -56.6623 O.2       7 UNK        -0.5100 
     40 CA         25.2067  -49.2473  -54.5694 C.3       6 UNK         0.0396 
     41 CB         24.2724  -50.3478  -54.0221 C.3       6 UNK        -0.1801 
     42 N          26.2287  -48.9048  -53.5811 N.am      6 UNK        -0.4747 
     43 C          26.0612  -48.2249  -52.4428 C.2       6 UNK         0.5012 
     44 O          24.9607  -47.8557  -52.0287 O.2       6 UNK        -0.5003 
     45 CA         27.3448  -47.9049  -51.6390 C.3       5 UNK         0.0782 
     46 C46        27.0431  -47.2205  -50.2754 C.3       11 UNK        -0.0868 
     47 S47        28.5487  -46.7083  -49.3729 S.3       11 UNK        -0.2515 
     48 C48        28.7684  -44.9849  -49.9346 C.3       11 UNK         0.0199 
     49 N          28.2522  -49.0552  -51.4988 N.am      5 UNK        -0.4607 
     50 C          29.0504  -49.5329  -52.4615 C.2       4 UNK         0.5031 
     51 O          29.0306  -49.1218  -53.6241 O.2       4 UNK        -0.5119 
     52 CA         29.9746  -50.7018  -52.0797 C.3       4 UNK         0.0263 
     53 CB         29.1866  -52.0226  -52.0721 C.3       4 UNK        -0.1967 
     54 N          31.0852  -50.8201  -53.0274 N.am      4 UNK        -0.4237 
     55 C          32.1272  -49.9815  -53.0821 C.2       3 UNK         0.4908 
     56 O          32.3699  -49.1266  -52.2255 O.2       3 UNK        -0.5102 
     57 CA         33.0363  -50.1162  -54.3118 C.3       3 UNK         0.0241 
     58 CB         32.2565  -49.8882  -55.6230 C.3       3 UNK        -0.1971 
     59 N          34.1278  -49.1486  -54.2235 N.am      3 UNK        -0.4139 
     60 C          35.3370  -49.2995  -54.7746 C.2       2 UNK         0.5016 
     61 O          35.6745  -50.2970  -55.4167 O.2       2 UNK        -0.5319 
     62 CA         36.3268  -48.1323  -54.5795 C.3       2 UNK         0.0286 
     63 CB         37.6359  -48.3181  -55.3766 C.3       2 UNK        -0.1963 
     64 N          35.7447  -46.8135  -54.8701 N.am      2 UNK        -0.4790 
     65 C          35.1671  -46.4042  -56.0140 C.2       1 UNK         0.5024 
     66 O          34.9828  -47.1267  -56.9937 O.2       1 UNK        -0.4888 
     67 H67        36.9613  -42.5338  -53.7363 H         1 UNK         0.0892 
     68 H68        38.4689  -43.3530  -54.1489 H         1 UNK         0.0892 
     69 H69        37.9520  -41.9371  -55.0688 H         1 UNK         0.0892 
     70 H70        35.1575  -43.6584  -54.4522 H         1 UNK         0.3107 
     71 H71        34.8882  -44.6211  -57.1318 H         1 UNK         0.0773 
     72 H72        32.6340  -45.3512  -56.4097 H         1 UNK         0.0680 
     73 H73        32.9552  -43.6928  -56.0232 H         1 UNK         0.0680 
     74 H74        31.6763  -47.0339  -53.5488 H         1 UNK         0.0650 
     75 H75        31.1961  -46.4268  -55.1043 H         1 UNK         0.0650 
     76 H76        30.8714  -45.8538  -51.4314 H         1 UNK         0.1397 
     77 H77        27.0182  -43.9933  -51.7891 H         1 UNK         0.1363 
     78 H78        29.2048  -45.0970  -55.3037 H         1 UNK         0.1355 
     79 H79        26.3201  -43.1567  -54.0076 H         1 UNK         0.0707 
     80 H80        27.2920  -43.4968  -55.4180 H         1 UNK         0.0707 
     81 H81        24.1516  -45.1049  -56.6646 H         1 UNK         0.1034 
     82 H82        25.2658  -43.7715  -56.7534 H         1 UNK         0.1034 
     83 H83        26.0631  -46.6587  -57.3802 H         1 UNK         0.0482 
     84 H84        27.0434  -45.8579  -60.1541 H         1 UNK         0.3460 
     85 H85        25.5581  -45.8873  -61.0748 H         1 UNK         0.3460 
     86 H86        28.1061  -45.9148  -57.5155 H         1 UNK         0.2989 
     87 H87        29.5083  -43.4456  -59.5055 H         1 UNK         0.0559 
     88 H88        29.6050  -42.0400  -57.4317 H         1 UNK         0.0848 
     89 H89        31.1389  -42.8126  -57.7847 H         1 UNK         0.0848 
     90 H90        30.1116  -43.4374  -56.4996 H         1 UNK         0.0848 
     91 H91        30.7025  -45.4455  -57.8213 H         1 UNK         0.3144 
     92 H92        30.8241  -47.8810  -60.2865 H         1 UNK         0.0727 
     93 H93        32.3604  -48.4135  -58.4755 H         1 UNK         0.0790 
     94 H94        31.6239  -47.2477  -57.3932 H         1 UNK         0.0790 
     95 H95        32.5171  -46.7034  -58.8123 H         1 UNK         0.0790 
     96 H96        29.4265  -49.3123  -59.3310 H         1 UNK         0.3215 
     97 H97        27.2979  -49.6973  -58.1787 H         1 UNK         0.0863 
     98 H98        27.9804  -51.6838  -56.8414 H         1 UNK         0.0808 
     99 H99        29.2344  -50.7538  -56.0312 H         1 UNK         0.0808 
    100 H100       29.3771  -51.1291  -57.7458 H         1 UNK         0.0808 
    101 H101       27.5091  -48.4711  -55.5617 H         1 UNK         0.3118 
    102 H102       24.6142  -48.3529  -54.7714 H         1 UNK         0.0546 
    103 H103       24.8203  -51.2666  -53.8108 H         1 UNK         0.0828 
    104 H104       23.4876  -50.5916  -54.7391 H         1 UNK         0.0828 
    105 H105       23.7740  -50.0367  -53.1044 H         1 UNK         0.0828 
    106 H106       27.1842  -49.1659  -53.8174 H         1 UNK         0.3005 
    107 H107       27.8623  -47.1777  -52.2635 H         1 UNK         0.1257 
    108 H108       26.4793  -47.8980  -49.6318 H         1 UNK         0.0775 
    109 H109       26.4102  -46.3420  -50.4148 H         1 UNK         0.0775 
    110 H110       27.9183  -44.3855  -49.6050 H         1 UNK         0.0840 
    111 H111       29.6501  -44.5607  -49.4523 H         1 UNK         0.0840 
    112 H112       28.2989  -49.4637  -50.5768 H         1 UNK         0.2987 
    113 H113       30.3790  -50.5190  -51.0817 H         1 UNK         0.0785 
    114 H114       29.8247  -52.8638  -51.8001 H         1 UNK         0.0798 
    115 H115       28.7465  -52.2362  -53.0473 H         1 UNK         0.0798 
    116 H116       28.3714  -51.9909  -51.3480 H         1 UNK         0.0798 
    117 H117       30.9524  -51.4712  -53.7867 H         1 UNK         0.3079 
    118 H118       33.4518  -51.1263  -54.3057 H         1 UNK         0.0794 
    119 H119       31.5616  -50.7048  -55.8139 H         1 UNK         0.0786 
    120 H120       32.9248  -49.8367  -56.4827 H         1 UNK         0.0786 
    121 H121       31.6782  -48.9636  -55.5933 H         1 UNK         0.0786 
    122 H122       33.9330  -48.3388  -53.6485 H         1 UNK         0.3032 
    123 H123       36.5864  -48.1334  -53.5195 H         1 UNK         0.1094 
    124 H124       38.3328  -47.5007  -55.1909 H         1 UNK         0.0794 
    125 H125       38.1399  -49.2431  -55.0934 H         1 UNK         0.0794 
    126 H126       37.4518  -48.3629  -56.4506 H         1 UNK         0.0794 
    127 H127       35.8184  -46.1316  -54.1279 H         1 UNK         0.3016 
@<TRIPOS>BOND
     1    1    2 1    
     2    1   67 1    
     3    1   68 1    
     4    1   69 1    
     5    2    3 2    
     6    2    4 am   BACKBONE|DICT|INTERRES
     7    4    5 1    
     8    4   70 1    
     9    5    6 1    
    10    5   65 1    
    11    5   71 1    
    12    6    7 1    
    13    6   72 1    
    14    6   73 1    
    15    7    8 1    
    16    8    9 1    
    17    8   74 1    
    18    8   75 1    
    19    9   10 ar   
    20    9   14 ar   
    21   10   11 ar   
    22   10   76 1    
    23   11   12 ar   
    24   11   48 1    
    25   12   13 ar   
    26   12   77 1    
    27   13   14 ar   
    28   13   15 1    
    29   14   78 1    
    30   15   16 1    
    31   15   79 1    
    32   15   80 1    
    33   16   17 1    
    34   17   18 1    
    35   17   81 1    
    36   17   82 1    
    37   18   19 1    
    38   18   22 1    
    39   18   83 1    
    40   19   20 am   BACKBONE|DICT|INTERRES
    41   19   21 2    
    42   20   84 1    
    43   20   85 1    
    44   22   23 am   BACKBONE|DICT|INTERRES
    45   22   86 1    
    46   23   24 2    
    47   23   25 1    
    48   25   26 1    
    49   25   27 1    
    50   25   87 1    
    51   26   88 1    
    52   26   89 1    
    53   26   90 1    
    54   27   28 am   BACKBONE|DICT|INTERRES
    55   27   91 1    
    56   28   29 2    
    57   28   30 1    
    58   30   31 1    
    59   30   32 1    
    60   30   92 1    
    61   31   93 1    
    62   31   94 1    
    63   31   95 1    
    64   32   33 am   BACKBONE|DICT|INTERRES
    65   32   96 1    
    66   33   34 2    
    67   33   35 1    
    68   35   36 1    
    69   35   37 1    
    70   35   97 1    
    71   36   98 1    
    72   36   99 1    
    73   36  100 1    
    74   37   38 am   BACKBONE|DICT|INTERRES
    75   37  101 1    
    76   38   39 2    
    77   38   40 1    
    78   40   41 1    
    79   40   42 1    
    80   40  102 1    
    81   41  103 1    
    82   41  104 1    
    83   41  105 1    
    84   42   43 am   BACKBONE|DICT|INTERRES
    85   42  106 1    
    86   43   44 2    
    87   43   45 1    
    88   45   46 1    
    89   45   49 1    
    90   45  107 1    
    91   46   47 1    
    92   46  108 1    
    93   46  109 1    
    94   47   48 1    
    95   48  110 1    
    96   48  111 1    
    97   49   50 am   BACKBONE|DICT|INTERRES
    98   49  112 1    
    99   50   51 2    
   100   50   52 1    
   101   52   53 1    
   102   52   54 1    
   103   52  113 1    
   104   53  114 1    
   105   53  115 1    
   106   53  116 1    
   107   54   55 am   BACKBONE|DICT|INTERRES
   108   54  117 1    
   109   55   56 2    
   110   55   57 1    
   111   57   58 1    
   112   57   59 1    
   113   57  118 1    
   114   58  119 1    
   115   58  120 1    
   116   58  121 1    
   117   59   60 am   BACKBONE|DICT|INTERRES
   118   59  122 1    
   119   60   61 2    
   120   60   62 1    
   121   62   63 1    
   122   62   64 1    
   123   62  123 1    
   124   63  124 1    
   125   63  125 1    
   126   63  126 1    
   127   64   65 am   BACKBONE|DICT|INTERRES
   128   64  127 1    
   129   65   66 2    
@<TRIPOS>SUBSTRUCTURE
     1 UNK         1 GROUP             0       ****    0 ROOT    
