@<TRIPOS>MOLECULE
3R134
127   129    1
SMALL
USER_CHARGES


@<TRIPOS>ATOM
      1 CA         30.8922  -44.3473  -47.0790 C.3       0 UNK        -0.1968 
      2 C          31.9448  -44.9641  -47.9888 C.2       0 UNK         0.4852 
      3 O          32.8770  -45.6036  -47.4982 O.2       0 UNK        -0.5359 
      4 N          31.8076  -44.7704  -49.3073 N.am      1 UNK        -0.4300 
      5 CA         32.6809  -45.3460  -50.3335 C.3       1 UNK         0.0863 
      6 C6         32.5157  -44.5987  -51.6789 C.3       11 UNK        -0.0953 
      7 S7         33.8928  -44.9108  -52.8322 S.3       11 UNK        -0.2369 
      8 C8         33.7544  -43.4776  -53.9471 C.3       11 UNK         0.0226 
      9 C9         32.8375  -43.7632  -55.1277 C.ar      11 UNK        -0.0699 
     10 C10        33.3701  -44.3095  -56.2983 C.ar      11 UNK        -0.0804 
     11 C11        32.5538  -44.5546  -57.4053 C.ar      11 UNK        -0.0871 
     12 C12        31.1899  -44.2613  -57.3329 C.ar      11 UNK        -0.1008 
     13 C13        30.6415  -43.7230  -56.1651 C.ar      11 UNK        -0.0735 
     14 C14        31.4709  -43.4685  -55.0662 C.ar      11 UNK        -0.0945 
     15 C15        29.1455  -43.4597  -56.0853 C.3       11 UNK         0.0169 
     16 S16        28.6572  -41.9799  -57.0228 S.3       11 UNK        -0.2669 
     17 C17        26.8718  -41.7858  -56.6512 C.3       11 UNK        -0.0850 
     18 CA         26.0635  -43.0770  -56.3358 C.3       10 UNK         0.0855 
     19 C          24.6059  -42.7144  -55.9359 C.2       10 UNK         0.5543 
     20 N          24.3519  -42.4866  -54.6546 N.am      10 UNK        -0.7343 
     21 O          23.7195  -42.5923  -56.7797 O.2       10 UNK        -0.5027 
     22 N          26.1106  -44.0338  -57.4524 N.am      10 UNK        -0.4495 
     23 C          25.7094  -45.3105  -57.3835 C.2       10 UNK         0.4903 
     24 O          25.3255  -45.8469  -56.3431 O.2       10 UNK        -0.4860 
     25 CA         25.7049  -46.1217  -58.6913 C.3       9 UNK         0.0227 
     26 CB         26.5689  -45.5110  -59.8161 C.3       9 UNK        -0.1964 
     27 N          26.1592  -47.4872  -58.4246 N.am      9 UNK        -0.4231 
     28 C          25.5075  -48.6047  -58.7720 C.2       9 UNK         0.5014 
     29 O          24.4149  -48.6129  -59.3445 O.2       9 UNK        -0.5270 
     30 CA         26.1906  -49.9509  -58.4672 C.3       8 UNK         0.0284 
     31 CB         27.1263  -50.3484  -59.6205 C.3       8 UNK        -0.1977 
     32 N          26.9316  -49.9818  -57.2026 N.am      8 UNK        -0.4342 
     33 C          26.3550  -50.0272  -55.9919 C.2       8 UNK         0.5039 
     34 O          25.1368  -50.0022  -55.8104 O.2       8 UNK        -0.5547 
     35 CA         27.2929  -50.1371  -54.7777 C.3       7 UNK         0.0281 
     36 CB         27.7982  -51.5780  -54.5938 C.3       7 UNK        -0.1963 
     37 N          28.4287  -49.2250  -54.8988 N.am      7 UNK        -0.4444 
     38 C          28.3686  -47.9161  -54.6182 C.2       7 UNK         0.5104 
     39 O          27.3977  -47.3708  -54.0944 O.2       7 UNK        -0.5100 
     40 CA         29.5865  -47.0622  -55.0015 C.3       6 UNK         0.0396 
     41 CB         30.5128  -46.8493  -53.7985 C.3       6 UNK        -0.1801 
     42 N          30.3352  -47.6173  -56.1329 N.am      6 UNK        -0.4747 
     43 C          29.9115  -47.5545  -57.4049 C.2       6 UNK         0.5012 
     44 O          28.8812  -46.9732  -57.7401 O.2       6 UNK        -0.5003 
     45 CA         30.7128  -48.3125  -58.4844 C.3       5 UNK         0.0782 
     46 C46        31.5759  -47.3746  -59.3654 C.3       11 UNK        -0.0868 
     47 S47        33.2006  -46.9363  -58.6524 S.3       11 UNK        -0.2515 
     48 C48        33.1590  -45.1188  -58.6797 C.3       11 UNK         0.0199 
     49 N          31.4759  -49.4410  -57.9487 N.am      5 UNK        -0.4607 
     50 C          30.9363  -50.5525  -57.4352 C.2       4 UNK         0.5031 
     51 O          29.7251  -50.7723  -57.4140 O.2       4 UNK        -0.5119 
     52 CA         31.9111  -51.5366  -56.7644 C.3       4 UNK         0.0263 
     53 CB         32.5286  -52.4823  -57.8061 C.3       4 UNK        -0.1967 
     54 N          32.9768  -50.8528  -56.0165 N.am      4 UNK        -0.4237 
     55 C          32.7528  -50.0518  -54.9650 C.2       3 UNK         0.4908 
     56 O          31.6288  -49.8470  -54.5042 O.2       3 UNK        -0.5102 
     57 CA         33.9669  -49.2968  -54.3932 C.3       3 UNK         0.0241 
     58 CB         34.2547  -48.0399  -55.2321 C.3       3 UNK        -0.1971 
     59 N          33.7724  -48.8893  -52.9988 N.am      3 UNK        -0.4139 
     60 C          33.6851  -49.7296  -51.9585 C.2       2 UNK         0.5016 
     61 O          33.7962  -50.9527  -52.0639 O.2       2 UNK        -0.5319 
     62 CA         33.4716  -49.1185  -50.5603 C.3       2 UNK         0.0286 
     63 CB         34.5385  -49.6266  -49.5726 C.3       2 UNK        -0.1963 
     64 N          33.5008  -47.6503  -50.5537 N.am      2 UNK        -0.4790 
     65 C          32.4208  -46.8634  -50.4635 C.2       1 UNK         0.5024 
     66 O          31.2618  -47.2847  -50.4738 O.2       1 UNK        -0.4888 
     67 H67        30.1365  -43.7993  -47.6415 H         1 UNK         0.0892 
     68 H68        30.3895  -45.1261  -46.5060 H         1 UNK         0.0892 
     69 H69        31.3602  -43.6563  -46.3782 H         1 UNK         0.0892 
     70 H70        31.0030  -44.2659  -49.6505 H         1 UNK         0.3107 
     71 H71        33.7087  -45.2003  -49.9919 H         1 UNK         0.0773 
     72 H72        32.4903  -43.5249  -51.4865 H         1 UNK         0.0680 
     73 H73        31.5664  -44.8340  -52.1577 H         1 UNK         0.0680 
     74 H74        34.7523  -43.2300  -54.3122 H         1 UNK         0.0650 
     75 H75        33.4121  -42.5976  -53.4011 H         1 UNK         0.0650 
     76 H76        34.4255  -44.5405  -56.3494 H         1 UNK         0.1397 
     77 H77        30.5485  -44.4577  -58.1812 H         1 UNK         0.1363 
     78 H78        31.0536  -43.0513  -54.1602 H         1 UNK         0.1355 
     79 H79        28.8341  -43.3552  -55.0449 H         1 UNK         0.0707 
     80 H80        28.6182  -44.3214  -56.4931 H         1 UNK         0.0707 
     81 H81        26.8040  -41.0964  -55.8071 H         1 UNK         0.1034 
     82 H82        26.4172  -41.2585  -57.4923 H         1 UNK         0.1034 
     83 H83        26.5131  -43.5663  -55.4705 H         1 UNK         0.0482 
     84 H84        25.0720  -42.5750  -53.9545 H         1 UNK         0.3460 
     85 H85        23.4157  -42.2337  -54.3788 H         1 UNK         0.3460 
     86 H86        26.3960  -43.6601  -58.3447 H         1 UNK         0.2989 
     87 H87        24.6681  -46.1310  -59.0327 H         1 UNK         0.0559 
     88 H88        27.6043  -45.3695  -59.5031 H         1 UNK         0.0848 
     89 H89        26.1805  -44.5448  -60.1397 H         1 UNK         0.0848 
     90 H90        26.5773  -46.1549  -60.6959 H         1 UNK         0.0848 
     91 H91        27.0568  -47.5528  -57.9503 H         1 UNK         0.3144 
     92 H92        25.4046  -50.7071  -58.4056 H         1 UNK         0.0727 
     93 H93        27.5958  -51.3158  -59.4390 H         1 UNK         0.0790 
     94 H94        27.9162  -49.6137  -59.7710 H         1 UNK         0.0790 
     95 H95        26.5747  -50.4265  -60.5585 H         1 UNK         0.0790 
     96 H96        27.9408  -50.0953  -57.2628 H         1 UNK         0.3215 
     97 H97        26.7194  -49.8701  -53.8867 H         1 UNK         0.0863 
     98 H98        28.4340  -51.6646  -53.7122 H         1 UNK         0.0808 
     99 H99        28.3711  -51.9262  -55.4535 H         1 UNK         0.0808 
    100 H100       26.9629  -52.2668  -54.4602 H         1 UNK         0.0808 
    101 H101       29.2844  -49.5950  -55.2920 H         1 UNK         0.3118 
    102 H102       29.2075  -46.0854  -55.2918 H         1 UNK         0.0546 
    103 H103       29.9932  -46.2902  -53.0201 H         1 UNK         0.0828 
    104 H104       31.4007  -46.2832  -54.0783 H         1 UNK         0.0828 
    105 H105       30.8346  -47.7863  -53.3466 H         1 UNK         0.0828 
    106 H106       31.1558  -48.1634  -55.9094 H         1 UNK         0.3005 
    107 H107       29.9575  -48.7393  -59.1462 H         1 UNK         0.1257 
    108 H108       31.0191  -46.4749  -59.6337 H         1 UNK         0.0775 
    109 H109       31.7786  -47.8742  -60.3140 H         1 UNK         0.0775 
    110 H110       34.1805  -44.7519  -58.7907 H         1 UNK         0.0840 
    111 H111       32.6197  -44.7610  -59.5580 H         1 UNK         0.0840 
    112 H112       32.4782  -49.3209  -57.9249 H         1 UNK         0.2987 
    113 H113       31.3355  -52.1357  -56.0552 H         1 UNK         0.0785 
    114 H114       31.7514  -53.0112  -58.3601 H         1 UNK         0.0798 
    115 H115       33.1567  -53.2374  -57.3331 H         1 UNK         0.0798 
    116 H116       33.1385  -51.9443  -58.5332 H         1 UNK         0.0798 
    117 H117       33.9226  -50.9767  -56.3497 H         1 UNK         0.3079 
    118 H118       34.8361  -49.9567  -54.4330 H         1 UNK         0.0794 
    119 H119       33.4022  -47.3590  -55.2541 H         1 UNK         0.0786 
    120 H120       34.4905  -48.3020  -56.2639 H         1 UNK         0.0786 
    121 H121       35.1095  -47.4873  -54.8415 H         1 UNK         0.0786 
    122 H122       33.6478  -47.9034  -52.8229 H         1 UNK         0.3032 
    123 H123       32.4983  -49.4745  -50.2135 H         1 UNK         0.1094 
    124 H124       35.5453  -49.3453  -49.8848 H         1 UNK         0.0794 
    125 H125       34.3732  -49.2272  -48.5715 H         1 UNK         0.0794 
    126 H126       34.5145  -50.7143  -49.4901 H         1 UNK         0.0794 
    127 H127       34.4162  -47.2206  -50.5594 H         1 UNK         0.3016 
@<TRIPOS>BOND
     1    1    2 1    
     2    1   67 1    
     3    1   68 1    
     4    1   69 1    
     5    2    3 2    
     6    2    4 am   BACKBONE|DICT|INTERRES
     7    4    5 1    
     8    4   70 1    
     9    5    6 1    
    10    5   65 1    
    11    5   71 1    
    12    6    7 1    
    13    6   72 1    
    14    6   73 1    
    15    7    8 1    
    16    8    9 1    
    17    8   74 1    
    18    8   75 1    
    19    9   10 ar   
    20    9   14 ar   
    21   10   11 ar   
    22   10   76 1    
    23   11   12 ar   
    24   11   48 1    
    25   12   13 ar   
    26   12   77 1    
    27   13   14 ar   
    28   13   15 1    
    29   14   78 1    
    30   15   16 1    
    31   15   79 1    
    32   15   80 1    
    33   16   17 1    
    34   17   18 1    
    35   17   81 1    
    36   17   82 1    
    37   18   19 1    
    38   18   22 1    
    39   18   83 1    
    40   19   20 am   BACKBONE|DICT|INTERRES
    41   19   21 2    
    42   20   84 1    
    43   20   85 1    
    44   22   23 am   BACKBONE|DICT|INTERRES
    45   22   86 1    
    46   23   24 2    
    47   23   25 1    
    48   25   26 1    
    49   25   27 1    
    50   25   87 1    
    51   26   88 1    
    52   26   89 1    
    53   26   90 1    
    54   27   28 am   BACKBONE|DICT|INTERRES
    55   27   91 1    
    56   28   29 2    
    57   28   30 1    
    58   30   31 1    
    59   30   32 1    
    60   30   92 1    
    61   31   93 1    
    62   31   94 1    
    63   31   95 1    
    64   32   33 am   BACKBONE|DICT|INTERRES
    65   32   96 1    
    66   33   34 2    
    67   33   35 1    
    68   35   36 1    
    69   35   37 1    
    70   35   97 1    
    71   36   98 1    
    72   36   99 1    
    73   36  100 1    
    74   37   38 am   BACKBONE|DICT|INTERRES
    75   37  101 1    
    76   38   39 2    
    77   38   40 1    
    78   40   41 1    
    79   40   42 1    
    80   40  102 1    
    81   41  103 1    
    82   41  104 1    
    83   41  105 1    
    84   42   43 am   BACKBONE|DICT|INTERRES
    85   42  106 1    
    86   43   44 2    
    87   43   45 1    
    88   45   46 1    
    89   45   49 1    
    90   45  107 1    
    91   46   47 1    
    92   46  108 1    
    93   46  109 1    
    94   47   48 1    
    95   48  110 1    
    96   48  111 1    
    97   49   50 am   BACKBONE|DICT|INTERRES
    98   49  112 1    
    99   50   51 2    
   100   50   52 1    
   101   52   53 1    
   102   52   54 1    
   103   52  113 1    
   104   53  114 1    
   105   53  115 1    
   106   53  116 1    
   107   54   55 am   BACKBONE|DICT|INTERRES
   108   54  117 1    
   109   55   56 2    
   110   55   57 1    
   111   57   58 1    
   112   57   59 1    
   113   57  118 1    
   114   58  119 1    
   115   58  120 1    
   116   58  121 1    
   117   59   60 am   BACKBONE|DICT|INTERRES
   118   59  122 1    
   119   60   61 2    
   120   60   62 1    
   121   62   63 1    
   122   62   64 1    
   123   62  123 1    
   124   63  124 1    
   125   63  125 1    
   126   63  126 1    
   127   64   65 am   BACKBONE|DICT|INTERRES
   128   64  127 1    
   129   65   66 2    
@<TRIPOS>SUBSTRUCTURE
     1 UNK         1 GROUP             0       ****    0 ROOT    
