@<TRIPOS>MOLECULE
3R134
127   129    1
SMALL
USER_CHARGES


@<TRIPOS>ATOM
      1 CA         32.9566  -46.6826  -60.9304 C.3       0 UNK        -0.1968 
      2 C          32.8384  -47.1206  -59.4781 C.2       0 UNK         0.4852 
      3 O          32.2439  -48.1628  -59.2028 O.2       0 UNK        -0.5359 
      4 N          33.3922  -46.3280  -58.5511 N.am      1 UNK        -0.4300 
      5 CA         33.3780  -46.5836  -57.1067 C.3       1 UNK         0.0863 
      6 C6         33.8663  -45.3611  -56.2869 C.3       11 UNK        -0.0953 
      7 S7         32.9649  -43.8268  -56.6837 S.3       11 UNK        -0.2369 
      8 C8         33.0265  -42.9316  -55.0991 C.3       11 UNK         0.0226 
      9 C9         31.8405  -43.2372  -54.1915 C.ar      11 UNK        -0.0699 
     10 C10        32.0392  -43.7932  -52.9215 C.ar      11 UNK        -0.0804 
     11 C11        30.9601  -43.9693  -52.0477 C.ar      11 UNK        -0.0871 
     12 C12        29.6777  -43.5927  -52.4574 C.ar      11 UNK        -0.1008 
     13 C13        29.4605  -43.0637  -53.7311 C.ar      11 UNK        -0.0735 
     14 C14        30.5463  -42.8857  -54.5932 C.ar      11 UNK        -0.0945 
     15 C15        28.0563  -42.6532  -54.1499 C.3       11 UNK         0.0169 
     16 S16        26.9869  -44.1040  -54.3968 S.3       11 UNK        -0.2669 
     17 C17        25.3805  -43.3105  -54.7648 C.3       11 UNK        -0.0850 
     18 CA         25.0327  -43.2561  -56.2776 C.3       10 UNK         0.0855 
     19 C          25.7701  -42.0955  -57.0115 C.2       10 UNK         0.5543 
     20 N          26.5547  -42.3403  -58.0545 N.am      10 UNK        -0.7343 
     21 O          25.6157  -40.9388  -56.6277 O.2       10 UNK        -0.5027 
     22 N          25.1761  -44.5786  -56.8990 N.am      10 UNK        -0.4495 
     23 C          24.5904  -44.9852  -58.0305 C.2       10 UNK         0.4903 
     24 O          23.7372  -44.3334  -58.6346 O.2       10 UNK        -0.4860 
     25 CA         25.0639  -46.3485  -58.5765 C.3       9 UNK         0.0227 
     26 CB         24.7269  -46.5471  -60.0693 C.3       9 UNK        -0.1964 
     27 N          26.4918  -46.5989  -58.3251 N.am      9 UNK        -0.4231 
     28 C          27.5291  -45.8481  -58.7374 C.2       9 UNK         0.5014 
     29 O          27.4001  -44.8349  -59.4260 O.2       9 UNK        -0.5270 
     30 CA         28.9454  -46.2383  -58.2715 C.3       8 UNK         0.0284 
     31 CB         29.4997  -45.1605  -57.3261 C.3       8 UNK        -0.1977 
     32 N          29.0136  -47.5369  -57.5989 N.am      8 UNK        -0.4342 
     33 C          28.9206  -48.7232  -58.2198 C.2       8 UNK         0.5039 
     34 O          28.8097  -48.8497  -59.4398 O.2       8 UNK        -0.5547 
     35 CA         28.8938  -49.9843  -57.3322 C.3       7 UNK         0.0281 
     36 CB         30.3124  -50.5617  -57.1926 C.3       7 UNK        -0.1963 
     37 N          28.3366  -49.7632  -55.9936 N.am      7 UNK        -0.4444 
     38 C          27.1313  -49.2466  -55.7106 C.2       7 UNK         0.5104 
     39 O          26.2868  -48.9722  -56.5634 O.2       7 UNK        -0.5100 
     40 CA         26.8422  -48.9152  -54.2341 C.3       6 UNK         0.0396 
     41 CB         25.9734  -50.0128  -53.6014 C.3       6 UNK        -0.1801 
     42 N          28.0346  -48.7091  -53.4010 N.am      6 UNK        -0.4747 
     43 C          29.0265  -47.8334  -53.6176 C.2       6 UNK         0.5012 
     44 O          29.0856  -47.1142  -54.6153 O.2       6 UNK        -0.5003 
     45 CA         30.1832  -47.7989  -52.5976 C.3       5 UNK         0.0782 
     46 C46        29.8477  -46.9375  -51.3535 C.3       11 UNK        -0.0868 
     47 S47        31.3841  -46.3229  -50.5820 S.3       11 UNK        -0.2515 
     48 C48        31.1744  -44.5123  -50.6389 C.3       11 UNK         0.0199 
     49 N          30.7199  -49.1292  -52.2618 N.am      5 UNK        -0.4607 
     50 C          30.1300  -50.1319  -51.5906 C.2       4 UNK         0.5031 
     51 O          28.9815  -50.0730  -51.1499 O.2       4 UNK        -0.5119 
     52 CA         30.9168  -51.4452  -51.4111 C.3       4 UNK         0.0263 
     53 CB         30.3692  -52.5207  -52.3648 C.3       4 UNK        -0.1967 
     54 N          32.3565  -51.3047  -51.6355 N.am      4 UNK        -0.4237 
     55 C          33.2157  -50.7311  -50.7811 C.2       3 UNK         0.4908 
     56 O          32.9062  -50.3514  -49.6514 O.2       3 UNK        -0.5102 
     57 CA         34.6631  -50.5259  -51.2757 C.3       3 UNK         0.0241 
     58 CB         35.5756  -51.6410  -50.7388 C.3       3 UNK        -0.1971 
     59 N          34.8113  -50.4411  -52.7374 N.am      3 UNK        -0.4139 
     60 C          34.2034  -49.5382  -53.5191 C.2       2 UNK         0.5016 
     61 O          33.4153  -48.6884  -53.0944 O.2       2 UNK        -0.5319 
     62 CA         34.4681  -49.6255  -55.0269 C.3       2 UNK         0.0286 
     63 CB         33.9068  -50.9291  -55.6259 C.3       2 UNK        -0.1963 
     64 N          33.8068  -48.4834  -55.6477 N.am      2 UNK        -0.4790 
     65 C          34.2066  -47.8320  -56.7402 C.2       1 UNK         0.5024 
     66 O          35.1934  -48.1512  -57.4089 O.2       1 UNK        -0.4888 
     67 H67        31.9650  -46.5664  -61.3675 H         1 UNK         0.0892 
     68 H68        33.4972  -47.4339  -61.5054 H         1 UNK         0.0892 
     69 H69        33.4841  -45.7340  -61.0295 H         1 UNK         0.0892 
     70 H70        33.8765  -45.4891  -58.8355 H         1 UNK         0.3107 
     71 H71        32.3419  -46.7885  -56.8302 H         1 UNK         0.0773 
     72 H72        34.9290  -45.1787  -56.4588 H         1 UNK         0.0680 
     73 H73        33.7567  -45.5601  -55.2188 H         1 UNK         0.0680 
     74 H74        33.9731  -43.1391  -54.5977 H         1 UNK         0.0650 
     75 H75        33.0277  -41.8618  -55.3121 H         1 UNK         0.0650 
     76 H76        33.0360  -44.0609  -52.5984 H         1 UNK         0.1397 
     77 H77        28.8388  -43.7116  -51.7852 H         1 UNK         0.1363 
     78 H78        30.3908  -42.4545  -55.5727 H         1 UNK         0.1355 
     79 H79        28.0855  -42.0662  -55.0690 H         1 UNK         0.0707 
     80 H80        27.6262  -42.0094  -53.3813 H         1 UNK         0.0707 
     81 H81        25.3359  -42.3186  -54.3107 H         1 UNK         0.1034 
     82 H82        24.6133  -43.8901  -54.2493 H         1 UNK         0.1034 
     83 H83        23.9748  -42.9943  -56.3420 H         1 UNK         0.0482 
     84 H84        27.0116  -41.5679  -58.5116 H         1 UNK         0.3460 
     85 H85        26.6909  -43.2806  -58.4092 H         1 UNK         0.3460 
     86 H86        25.8759  -45.1722  -56.4779 H         1 UNK         0.2989 
     87 H87        24.5201  -47.1070  -58.0117 H         1 UNK         0.0559 
     88 H88        25.1902  -45.7832  -60.6945 H         1 UNK         0.0848 
     89 H89        23.6506  -46.4955  -60.2380 H         1 UNK         0.0848 
     90 H90        25.0629  -47.5210  -60.4252 H         1 UNK         0.0848 
     91 H91        26.6853  -47.4153  -57.7520 H         1 UNK         0.3144 
     92 H92        29.5835  -46.2783  -59.1568 H         1 UNK         0.0727 
     93 H93        30.5039  -45.4053  -56.9881 H         1 UNK         0.0790 
     94 H94        28.8769  -45.0421  -56.4399 H         1 UNK         0.0790 
     95 H95        29.5525  -44.1891  -57.8193 H         1 UNK         0.0790 
     96 H96        29.0771  -47.5139  -56.5844 H         1 UNK         0.3215 
     97 H97        28.2635  -50.7231  -57.8314 H         1 UNK         0.0863 
     98 H98        30.3121  -51.4991  -56.6363 H         1 UNK         0.0808 
     99 H99        30.9821  -49.8650  -56.6863 H         1 UNK         0.0808 
    100 H100       30.7463  -50.7669  -58.1725 H         1 UNK         0.0808 
    101 H101       28.9503  -49.9448  -55.2138 H         1 UNK         0.3118 
    102 H102       26.2779  -47.9806  -54.2213 H         1 UNK         0.0546 
    103 H103       25.0633  -50.1753  -54.1809 H         1 UNK         0.0828 
    104 H104       25.6673  -49.7434  -52.5904 H         1 UNK         0.0828 
    105 H105       26.5023  -50.9652  -53.5491 H         1 UNK         0.0828 
    106 H106       28.1094  -49.2748  -52.5574 H         1 UNK         0.3005 
    107 H107       30.9927  -47.2939  -53.1293 H         1 UNK         0.1257 
    108 H108       29.2831  -47.5055  -50.6135 H         1 UNK         0.0775 
    109 H109       29.2084  -46.0958  -51.6168 H         1 UNK         0.0775 
    110 H110       30.3412  -44.2343  -49.9913 H         1 UNK         0.0840 
    111 H111       32.0588  -44.0448  -50.2035 H         1 UNK         0.0840 
    112 H112       31.6886  -49.2503  -52.5442 H         1 UNK         0.2987 
    113 H113       30.7573  -51.7828  -50.3847 H         1 UNK         0.0785 
    114 H114       29.3017  -52.6792  -52.2042 H         1 UNK         0.0798 
    115 H115       30.8627  -53.4798  -52.2068 H         1 UNK         0.0798 
    116 H116       30.5027  -52.2415  -53.4108 H         1 UNK         0.0798 
    117 H117       32.7089  -51.6083  -52.5309 H         1 UNK         0.3079 
    118 H118       35.0061  -49.5754  -50.8615 H         1 UNK         0.0794 
    119 H119       35.3034  -52.6162  -51.1447 H         1 UNK         0.0786 
    120 H120       35.5096  -51.7108  -49.6519 H         1 UNK         0.0786 
    121 H121       36.6209  -51.4530  -50.9848 H         1 UNK         0.0786 
    122 H122       35.4357  -51.1109  -53.1643 H         1 UNK         0.3032 
    123 H123       35.5466  -49.5670  -55.1920 H         1 UNK         0.1094 
    124 H124       34.0264  -50.9497  -56.7095 H         1 UNK         0.0794 
    125 H125       34.4249  -51.8037  -55.2312 H         1 UNK         0.0794 
    126 H126       32.8452  -51.0502  -55.4075 H         1 UNK         0.0794 
    127 H127       33.0620  -48.0988  -55.0791 H         1 UNK         0.3016 
@<TRIPOS>BOND
     1    1    2 1    
     2    1   67 1    
     3    1   68 1    
     4    1   69 1    
     5    2    3 2    
     6    2    4 am   BACKBONE|DICT|INTERRES
     7    4    5 1    
     8    4   70 1    
     9    5    6 1    
    10    5   65 1    
    11    5   71 1    
    12    6    7 1    
    13    6   72 1    
    14    6   73 1    
    15    7    8 1    
    16    8    9 1    
    17    8   74 1    
    18    8   75 1    
    19    9   10 ar   
    20    9   14 ar   
    21   10   11 ar   
    22   10   76 1    
    23   11   12 ar   
    24   11   48 1    
    25   12   13 ar   
    26   12   77 1    
    27   13   14 ar   
    28   13   15 1    
    29   14   78 1    
    30   15   16 1    
    31   15   79 1    
    32   15   80 1    
    33   16   17 1    
    34   17   18 1    
    35   17   81 1    
    36   17   82 1    
    37   18   19 1    
    38   18   22 1    
    39   18   83 1    
    40   19   20 am   BACKBONE|DICT|INTERRES
    41   19   21 2    
    42   20   84 1    
    43   20   85 1    
    44   22   23 am   BACKBONE|DICT|INTERRES
    45   22   86 1    
    46   23   24 2    
    47   23   25 1    
    48   25   26 1    
    49   25   27 1    
    50   25   87 1    
    51   26   88 1    
    52   26   89 1    
    53   26   90 1    
    54   27   28 am   BACKBONE|DICT|INTERRES
    55   27   91 1    
    56   28   29 2    
    57   28   30 1    
    58   30   31 1    
    59   30   32 1    
    60   30   92 1    
    61   31   93 1    
    62   31   94 1    
    63   31   95 1    
    64   32   33 am   BACKBONE|DICT|INTERRES
    65   32   96 1    
    66   33   34 2    
    67   33   35 1    
    68   35   36 1    
    69   35   37 1    
    70   35   97 1    
    71   36   98 1    
    72   36   99 1    
    73   36  100 1    
    74   37   38 am   BACKBONE|DICT|INTERRES
    75   37  101 1    
    76   38   39 2    
    77   38   40 1    
    78   40   41 1    
    79   40   42 1    
    80   40  102 1    
    81   41  103 1    
    82   41  104 1    
    83   41  105 1    
    84   42   43 am   BACKBONE|DICT|INTERRES
    85   42  106 1    
    86   43   44 2    
    87   43   45 1    
    88   45   46 1    
    89   45   49 1    
    90   45  107 1    
    91   46   47 1    
    92   46  108 1    
    93   46  109 1    
    94   47   48 1    
    95   48  110 1    
    96   48  111 1    
    97   49   50 am   BACKBONE|DICT|INTERRES
    98   49  112 1    
    99   50   51 2    
   100   50   52 1    
   101   52   53 1    
   102   52   54 1    
   103   52  113 1    
   104   53  114 1    
   105   53  115 1    
   106   53  116 1    
   107   54   55 am   BACKBONE|DICT|INTERRES
   108   54  117 1    
   109   55   56 2    
   110   55   57 1    
   111   57   58 1    
   112   57   59 1    
   113   57  118 1    
   114   58  119 1    
   115   58  120 1    
   116   58  121 1    
   117   59   60 am   BACKBONE|DICT|INTERRES
   118   59  122 1    
   119   60   61 2    
   120   60   62 1    
   121   62   63 1    
   122   62   64 1    
   123   62  123 1    
   124   63  124 1    
   125   63  125 1    
   126   63  126 1    
   127   64   65 am   BACKBONE|DICT|INTERRES
   128   64  127 1    
   129   65   66 2    
@<TRIPOS>SUBSTRUCTURE
     1 UNK         1 GROUP             0       ****    0 ROOT    
