@<TRIPOS>MOLECULE
3R134
127   129    1
SMALL
USER_CHARGES


@<TRIPOS>ATOM
      1 CA         36.0259  -45.1938  -47.2302 C.3       0 UNK        -0.1968 
      2 C          36.1434  -45.2479  -48.7466 C.2       0 UNK         0.4852 
      3 O          37.1782  -45.6718  -49.2647 O.2       0 UNK        -0.5359 
      4 N          35.0961  -44.8134  -49.4588 N.am      1 UNK        -0.4300 
      5 CA         34.9946  -44.8565  -50.9205 C.3       1 UNK         0.0863 
      6 C6         33.9751  -43.8147  -51.4531 C.3       11 UNK        -0.0953 
      7 S7         32.3008  -43.8976  -50.7197 S.3       11 UNK        -0.2369 
      8 C8         31.4017  -45.0293  -51.8290 C.3       11 UNK         0.0226 
      9 C9         31.0204  -44.3953  -53.1613 C.ar      11 UNK        -0.0699 
     10 C10        31.9228  -44.4004  -54.2283 C.ar      11 UNK        -0.0804 
     11 C11        31.5882  -43.7961  -55.4410 C.ar      11 UNK        -0.0871 
     12 C12        30.3388  -43.1979  -55.5860 C.ar      11 UNK        -0.1008 
     13 C13        29.3701  -43.2991  -54.5805 C.ar      11 UNK        -0.0735 
     14 C14        29.7387  -43.8659  -53.3540 C.ar      11 UNK        -0.0945 
     15 C15        27.9059  -42.8876  -54.7841 C.3       11 UNK         0.0169 
     16 S16        27.4629  -42.0877  -56.3743 S.3       11 UNK        -0.2669 
     17 C17        27.9233  -43.3209  -57.6450 C.3       11 UNK        -0.0850 
     18 CA         26.7344  -43.8729  -58.4632 C.3       10 UNK         0.0855 
     19 C          27.2371  -44.4798  -59.7998 C.2       10 UNK         0.5543 
     20 N          27.9538  -45.5966  -59.7571 N.am      10 UNK        -0.7343 
     21 O          26.9864  -43.9317  -60.8699 O.2       10 UNK        -0.5027 
     22 N          25.9704  -44.8669  -57.7026 N.am      10 UNK        -0.4495 
     23 C          24.7116  -45.2177  -57.9863 C.2       10 UNK         0.4903 
     24 O          23.9841  -44.6116  -58.7753 O.2       10 UNK        -0.4860 
     25 CA         24.2121  -46.4890  -57.2827 C.3       9 UNK         0.0227 
     26 CB         22.7293  -46.8098  -57.5693 C.3       9 UNK        -0.1964 
     27 N          25.0778  -47.6357  -57.5863 N.am      9 UNK        -0.4231 
     28 C          25.2945  -48.2144  -58.7814 C.2       9 UNK         0.5014 
     29 O          24.7410  -47.8587  -59.8228 O.2       9 UNK        -0.5270 
     30 CA         26.2857  -49.3988  -58.8506 C.3       8 UNK         0.0284 
     31 CB         27.4770  -49.0822  -59.7702 C.3       8 UNK        -0.1977 
     32 N          26.8021  -49.8302  -57.5509 N.am      8 UNK        -0.4342 
     33 C          26.0949  -50.4792  -56.6177 C.2       8 UNK         0.5039 
     34 O          24.9445  -50.8843  -56.7874 O.2       8 UNK        -0.5547 
     35 CA         26.7650  -50.6653  -55.2473 C.3       7 UNK         0.0281 
     36 CB         27.4744  -52.0269  -55.1819 C.3       7 UNK        -0.1963 
     37 N          27.7100  -49.5973  -54.8950 N.am      7 UNK        -0.4444 
     38 C          27.4009  -48.2990  -54.7518 C.2       7 UNK         0.5104 
     39 O          26.2772  -47.8371  -54.9471 O.2       7 UNK        -0.5100 
     40 CA         28.5418  -47.3526  -54.3436 C.3       6 UNK         0.0396 
     41 CB         28.9244  -47.5855  -52.8735 C.3       6 UNK        -0.1801 
     42 N          29.7251  -47.5004  -55.1924 N.am      6 UNK        -0.4747 
     43 C          29.7736  -47.2203  -56.5049 C.2       6 UNK         0.5012 
     44 O          28.8284  -46.7532  -57.1469 O.2       6 UNK        -0.5003 
     45 CA         31.0734  -47.6192  -57.2395 C.3       5 UNK         0.0782 
     46 C46        32.2188  -46.5898  -57.0811 C.3       11 UNK        -0.0868 
     47 S47        31.9461  -44.9901  -57.9094 S.3       11 UNK        -0.2515 
     48 C48        32.5389  -43.8323  -56.6274 C.3       11 UNK         0.0199 
     49 N          31.5362  -48.9365  -56.7977 N.am      5 UNK        -0.4607 
     50 C          30.8967  -50.0967  -56.9884 C.2       4 UNK         0.5031 
     51 O          29.8420  -50.2087  -57.6126 O.2       4 UNK        -0.5119 
     52 CA         31.5345  -51.3329  -56.3313 C.3       4 UNK         0.0263 
     53 CB         32.6248  -51.9254  -57.2380 C.3       4 UNK        -0.1967 
     54 N          32.0979  -51.0419  -55.0069 N.am      4 UNK        -0.4237 
     55 C          31.3595  -50.7116  -53.9372 C.2       3 UNK         0.4908 
     56 O          30.1323  -50.6509  -53.9531 O.2       3 UNK        -0.5102 
     57 CA         32.1014  -50.3648  -52.6369 C.3       3 UNK         0.0241 
     58 CB         32.3649  -51.6350  -51.8129 C.3       3 UNK        -0.1971 
     59 N          33.3582  -49.6381  -52.8378 N.am      3 UNK        -0.4139 
     60 C          33.4556  -48.4135  -53.3731 C.2       2 UNK         0.5016 
     61 O          32.5008  -47.7900  -53.8417 O.2       2 UNK        -0.5319 
     62 CA         34.8672  -47.7999  -53.4262 C.3       2 UNK         0.0286 
     63 CB         35.3263  -47.6336  -54.8844 C.3       2 UNK        -0.1963 
     64 N          34.9719  -46.5064  -52.7401 N.am      2 UNK        -0.4790 
     65 C          34.7294  -46.2909  -51.4378 C.2       1 UNK         0.5024 
     66 O          34.3295  -47.1661  -50.6650 O.2       1 UNK        -0.4888 
     67 H67        36.8172  -44.5708  -46.8142 H         1 UNK         0.0892 
     68 H68        36.1235  -46.1949  -46.8110 H         1 UNK         0.0892 
     69 H69        35.0682  -44.7841  -46.9097 H         1 UNK         0.0892 
     70 H70        34.2597  -44.5060  -48.9830 H         1 UNK         0.3107 
     71 H71        35.9715  -44.5696  -51.3165 H         1 UNK         0.0773 
     72 H72        34.3562  -42.8186  -51.2228 H         1 UNK         0.0680 
     73 H73        33.9241  -43.8347  -52.5384 H         1 UNK         0.0680 
     74 H74        31.9834  -45.9346  -51.9945 H         1 UNK         0.0650 
     75 H75        30.5009  -45.3457  -51.3023 H         1 UNK         0.0650 
     76 H76        32.8781  -44.8927  -54.1226 H         1 UNK         0.1397 
     77 H77        30.1221  -42.7188  -56.5261 H         1 UNK         0.1363 
     78 H78        29.0129  -43.9255  -52.5545 H         1 UNK         0.1355 
     79 H79        27.6219  -42.2077  -53.9797 H         1 UNK         0.0707 
     80 H80        27.2810  -43.7748  -54.6704 H         1 UNK         0.0707 
     81 H81        28.4651  -44.1515  -57.1924 H         1 UNK         0.1034 
     82 H82        28.6368  -42.8233  -58.3057 H         1 UNK         0.1034 
     83 H83        26.0778  -43.0362  -58.7112 H         1 UNK         0.0482 
     84 H84        28.1924  -46.0238  -58.8685 H         1 UNK         0.3460 
     85 H85        28.2898  -45.9960  -60.6179 H         1 UNK         0.3460 
     86 H86        26.5040  -45.4483  -57.0720 H         1 UNK         0.2989 
     87 H87        24.3041  -46.3086  -56.2107 H         1 UNK         0.0559 
     88 H88        22.4082  -47.7051  -57.0372 H         1 UNK         0.0848 
     89 H89        22.5407  -46.9656  -58.6318 H         1 UNK         0.0848 
     90 H90        22.0863  -45.9909  -57.2448 H         1 UNK         0.0848 
     91 H91        25.5971  -47.9865  -56.7866 H         1 UNK         0.3144 
     92 H92        25.7383  -50.2352  -59.2901 H         1 UNK         0.0727 
     93 H93        28.0806  -49.9718  -59.9511 H         1 UNK         0.0790 
     94 H94        28.1294  -48.3259  -59.3353 H         1 UNK         0.0790 
     95 H95        27.1451  -48.7139  -60.7418 H         1 UNK         0.0790 
     96 H96        27.7692  -49.6016  -57.3469 H         1 UNK         0.3215 
     97 H97        25.9725  -50.6569  -54.4961 H         1 UNK         0.0863 
     98 H98        27.8698  -52.2216  -54.1849 H         1 UNK         0.0808 
     99 H99        28.3028  -52.0813  -55.8886 H         1 UNK         0.0808 
    100 H100       26.7865  -52.8391  -55.4208 H         1 UNK         0.0808 
    101 H101       28.6584  -49.8952  -54.6674 H         1 UNK         0.3118 
    102 H102       28.1939  -46.3230  -54.4494 H         1 UNK         0.0546 
    103 H103       28.1537  -47.1982  -52.2066 H         1 UNK         0.0828 
    104 H104       29.8582  -47.0899  -52.6255 H         1 UNK         0.0828 
    105 H105       29.0538  -48.6418  -52.6387 H         1 UNK         0.0828 
    106 H106       30.5683  -47.8455  -54.7458 H         1 UNK         0.3005 
    107 H107       30.8290  -47.6995  -58.3012 H         1 UNK         0.1257 
    108 H108       33.1380  -46.9989  -57.5035 H         1 UNK         0.0775 
    109 H109       32.4305  -46.4286  -56.0258 H         1 UNK         0.0775 
    110 H110       33.5464  -44.1133  -56.3162 H         1 UNK         0.0840 
    111 H111       32.6183  -42.8334  -57.0589 H         1 UNK         0.0840 
    112 H112       32.3676  -48.9426  -56.2265 H         1 UNK         0.2987 
    113 H113       30.7508  -52.0832  -56.2076 H         1 UNK         0.0785 
    114 H114       33.4538  -51.2319  -57.3845 H         1 UNK         0.0798 
    115 H115       32.2227  -52.1652  -58.2235 H         1 UNK         0.0798 
    116 H116       33.0280  -52.8488  -56.8219 H         1 UNK         0.0798 
    117 H117       33.1018  -51.0845  -54.9091 H         1 UNK         0.3079 
    118 H118       31.4426  -49.7158  -52.0556 H         1 UNK         0.0794 
    119 H119       33.0496  -52.3146  -52.3220 H         1 UNK         0.0786 
    120 H120       31.4380  -52.1815  -51.6317 H         1 UNK         0.0786 
    121 H121       32.7913  -51.3947  -50.8387 H         1 UNK         0.0786 
    122 H122       34.1925  -50.0787  -52.4778 H         1 UNK         0.3032 
    123 H123       35.5609  -48.4834  -52.9316 H         1 UNK         0.1094 
    124 H124       35.2378  -48.5709  -55.4355 H         1 UNK         0.0794 
    125 H125       36.3713  -47.3277  -54.9381 H         1 UNK         0.0794 
    126 H126       34.7333  -46.8864  -55.4119 H         1 UNK         0.0794 
    127 H127       35.2914  -45.7324  -53.3039 H         1 UNK         0.3016 
@<TRIPOS>BOND
     1    1    2 1    
     2    1   67 1    
     3    1   68 1    
     4    1   69 1    
     5    2    3 2    
     6    2    4 am   BACKBONE|DICT|INTERRES
     7    4    5 1    
     8    4   70 1    
     9    5    6 1    
    10    5   65 1    
    11    5   71 1    
    12    6    7 1    
    13    6   72 1    
    14    6   73 1    
    15    7    8 1    
    16    8    9 1    
    17    8   74 1    
    18    8   75 1    
    19    9   10 ar   
    20    9   14 ar   
    21   10   11 ar   
    22   10   76 1    
    23   11   12 ar   
    24   11   48 1    
    25   12   13 ar   
    26   12   77 1    
    27   13   14 ar   
    28   13   15 1    
    29   14   78 1    
    30   15   16 1    
    31   15   79 1    
    32   15   80 1    
    33   16   17 1    
    34   17   18 1    
    35   17   81 1    
    36   17   82 1    
    37   18   19 1    
    38   18   22 1    
    39   18   83 1    
    40   19   20 am   BACKBONE|DICT|INTERRES
    41   19   21 2    
    42   20   84 1    
    43   20   85 1    
    44   22   23 am   BACKBONE|DICT|INTERRES
    45   22   86 1    
    46   23   24 2    
    47   23   25 1    
    48   25   26 1    
    49   25   27 1    
    50   25   87 1    
    51   26   88 1    
    52   26   89 1    
    53   26   90 1    
    54   27   28 am   BACKBONE|DICT|INTERRES
    55   27   91 1    
    56   28   29 2    
    57   28   30 1    
    58   30   31 1    
    59   30   32 1    
    60   30   92 1    
    61   31   93 1    
    62   31   94 1    
    63   31   95 1    
    64   32   33 am   BACKBONE|DICT|INTERRES
    65   32   96 1    
    66   33   34 2    
    67   33   35 1    
    68   35   36 1    
    69   35   37 1    
    70   35   97 1    
    71   36   98 1    
    72   36   99 1    
    73   36  100 1    
    74   37   38 am   BACKBONE|DICT|INTERRES
    75   37  101 1    
    76   38   39 2    
    77   38   40 1    
    78   40   41 1    
    79   40   42 1    
    80   40  102 1    
    81   41  103 1    
    82   41  104 1    
    83   41  105 1    
    84   42   43 am   BACKBONE|DICT|INTERRES
    85   42  106 1    
    86   43   44 2    
    87   43   45 1    
    88   45   46 1    
    89   45   49 1    
    90   45  107 1    
    91   46   47 1    
    92   46  108 1    
    93   46  109 1    
    94   47   48 1    
    95   48  110 1    
    96   48  111 1    
    97   49   50 am   BACKBONE|DICT|INTERRES
    98   49  112 1    
    99   50   51 2    
   100   50   52 1    
   101   52   53 1    
   102   52   54 1    
   103   52  113 1    
   104   53  114 1    
   105   53  115 1    
   106   53  116 1    
   107   54   55 am   BACKBONE|DICT|INTERRES
   108   54  117 1    
   109   55   56 2    
   110   55   57 1    
   111   57   58 1    
   112   57   59 1    
   113   57  118 1    
   114   58  119 1    
   115   58  120 1    
   116   58  121 1    
   117   59   60 am   BACKBONE|DICT|INTERRES
   118   59  122 1    
   119   60   61 2    
   120   60   62 1    
   121   62   63 1    
   122   62   64 1    
   123   62  123 1    
   124   63  124 1    
   125   63  125 1    
   126   63  126 1    
   127   64   65 am   BACKBONE|DICT|INTERRES
   128   64  127 1    
   129   65   66 2    
@<TRIPOS>SUBSTRUCTURE
     1 UNK         1 GROUP             0       ****    0 ROOT    
