@<TRIPOS>MOLECULE
3R134
127   129    1
SMALL
USER_CHARGES


@<TRIPOS>ATOM
      1 CA         36.3563  -47.4713  -53.0512 C.3       0 UNK        -0.1968 
      2 C          34.8361  -47.5027  -53.0600 C.2       0 UNK         0.4852 
      3 O          34.2521  -48.3671  -53.7142 O.2       0 UNK        -0.5359 
      4 N          34.1965  -46.5864  -52.3179 N.am      1 UNK        -0.4300 
      5 CA         32.7414  -46.3716  -52.2526 C.3       1 UNK         0.0863 
      6 C6         32.3690  -45.2032  -51.2985 C.3       11 UNK        -0.0953 
      7 S7         33.3063  -43.6615  -51.5846 S.3       11 UNK        -0.2369 
      8 C8         32.0158  -42.4858  -52.1377 C.3       11 UNK         0.0226 
      9 C9         31.6752  -42.5183  -53.6299 C.ar      11 UNK        -0.0699 
     10 C10        32.5164  -43.1116  -54.5786 C.ar      11 UNK        -0.0804 
     11 C11        32.1871  -43.0976  -55.9354 C.ar      11 UNK        -0.0871 
     12 C12        31.0053  -42.4832  -56.3547 C.ar      11 UNK        -0.1008 
     13 C13        30.1493  -41.8898  -55.4237 C.ar      11 UNK        -0.0735 
     14 C14        30.4989  -41.8970  -54.0679 C.ar      11 UNK        -0.0945 
     15 C15        28.8566  -41.2271  -55.8837 C.3       11 UNK         0.0169 
     16 S16        27.4832  -42.4187  -56.0296 S.3       11 UNK        -0.2669 
     17 C17        27.8739  -43.2503  -57.6091 C.3       11 UNK        -0.0850 
     18 CA         26.6480  -43.9498  -58.2630 C.3       10 UNK         0.0855 
     19 C          26.9802  -44.5132  -59.6767 C.2       10 UNK         0.5543 
     20 N          26.5312  -45.7084  -60.0452 N.am      10 UNK        -0.7343 
     21 O          27.6480  -43.8481  -60.4646 O.2       10 UNK        -0.5027 
     22 N          26.0546  -44.9685  -57.3805 N.am      10 UNK        -0.4495 
     23 C          24.7632  -45.0309  -57.0350 C.2       10 UNK         0.4903 
     24 O          23.9230  -44.1974  -57.3793 O.2       10 UNK        -0.4860 
     25 CA         24.3335  -46.2185  -56.1476 C.3       9 UNK         0.0227 
     26 CB         22.8152  -46.4905  -56.2119 C.3       9 UNK        -0.1964 
     27 N          25.0847  -47.4595  -56.3805 N.am      9 UNK        -0.4231 
     28 C          25.1791  -48.1594  -57.5238 C.2       9 UNK         0.5014 
     29 O          24.6777  -47.7911  -58.5875 O.2       9 UNK        -0.5270 
     30 CA         25.9845  -49.4751  -57.4791 C.3       8 UNK         0.0284 
     31 CB         26.6523  -49.7899  -58.8310 C.3       8 UNK        -0.1977 
     32 N          27.0206  -49.4102  -56.4493 N.am      8 UNK        -0.4342 
     33 C          27.0673  -50.1267  -55.3177 C.2       8 UNK         0.5039 
     34 O          26.2744  -51.0284  -55.0455 O.2       8 UNK        -0.5547 
     35 CA         28.1655  -49.7579  -54.2969 C.3       7 UNK         0.0281 
     36 CB         29.3328  -50.7537  -54.3785 C.3       7 UNK        -0.1963 
     37 N          28.6805  -48.3937  -54.4604 N.am      7 UNK        -0.4444 
     38 C          27.9530  -47.2782  -54.3056 C.2       7 UNK         0.5104 
     39 O          26.7872  -47.2788  -53.9089 O.2       7 UNK        -0.5100 
     40 CA         28.5795  -45.9504  -54.7728 C.3       6 UNK         0.0396 
     41 CB         29.1377  -45.1530  -53.5899 C.3       6 UNK        -0.1801 
     42 N          29.6001  -46.1026  -55.8211 N.am      6 UNK        -0.4747 
     43 C          29.3679  -46.6523  -57.0206 C.2       6 UNK         0.5012 
     44 O          28.2403  -46.9769  -57.3915 O.2       6 UNK        -0.5003 
     45 CA         30.5649  -46.9292  -57.9519 C.3       5 UNK         0.0782 
     46 C46        31.5184  -45.7178  -58.1613 C.3       11 UNK        -0.0868 
     47 S47        32.8888  -45.5479  -56.9663 S.3       11 UNK        -0.2515 
     48 C48        33.1238  -43.7477  -56.9375 C.3       11 UNK         0.0199 
     49 N          31.2473  -48.2113  -57.7049 N.am      5 UNK        -0.4607 
     50 C          31.6656  -48.7352  -56.5423 C.2       4 UNK         0.5031 
     51 O          31.4364  -48.2511  -55.4327 O.2       4 UNK        -0.5119 
     52 CA         32.4832  -50.0301  -56.6429 C.3       4 UNK         0.0263 
     53 CB         33.7060  -49.8695  -57.5680 C.3       4 UNK        -0.1967 
     54 N          32.9462  -50.4099  -55.3110 N.am      4 UNK        -0.4237 
     55 C          33.1025  -51.6613  -54.8684 C.2       3 UNK         0.4908 
     56 O          32.8493  -52.6619  -55.5410 O.2       3 UNK        -0.5102 
     57 CA         33.6451  -51.8393  -53.4436 C.3       3 UNK         0.0241 
     58 CB         35.1831  -51.8353  -53.4598 C.3       3 UNK        -0.1971 
     59 N          33.1761  -50.7916  -52.5331 N.am      3 UNK        -0.4139 
     60 C          32.2355  -50.9643  -51.5937 C.2       2 UNK         0.5016 
     61 O          31.6155  -52.0171  -51.4369 O.2       2 UNK        -0.5319 
     62 CA         31.9464  -49.7926  -50.6364 C.3       2 UNK         0.0286 
     63 CB         32.4624  -50.1179  -49.2239 C.3       2 UNK        -0.1963 
     64 N          32.5463  -48.5288  -51.0712 N.am      2 UNK        -0.4790 
     65 C          31.9336  -47.6290  -51.8529 C.2       1 UNK         0.5024 
     66 O          30.7735  -47.7521  -52.2401 O.2       1 UNK        -0.4888 
     67 H67        36.7305  -47.2951  -54.0603 H         1 UNK         0.0892 
     68 H68        36.7487  -48.4275  -52.7039 H         1 UNK         0.0892 
     69 H69        36.7459  -46.6866  -52.4016 H         1 UNK         0.0892 
     70 H70        34.7410  -45.9091  -51.8021 H         1 UNK         0.3107 
     71 H71        32.4283  -46.1050  -53.2644 H         1 UNK         0.0773 
     72 H72        31.3011  -44.9881  -51.3585 H         1 UNK         0.0680 
     73 H73        32.5520  -45.4932  -50.2619 H         1 UNK         0.0680 
     74 H74        31.1129  -42.6426  -51.5458 H         1 UNK         0.0650 
     75 H75        32.3625  -41.4794  -51.9002 H         1 UNK         0.0650 
     76 H76        33.4385  -43.5867  -54.2764 H         1 UNK         0.1397 
     77 H77        30.7503  -42.4666  -57.4050 H         1 UNK         0.1363 
     78 H78        29.8429  -41.4280  -53.3471 H         1 UNK         0.1355 
     79 H79        28.5667  -40.4525  -55.1721 H         1 UNK         0.0707 
     80 H80        29.0099  -40.7159  -56.8353 H         1 UNK         0.0707 
     81 H81        28.6771  -43.9625  -57.4340 H         1 UNK         0.1034 
     82 H82        28.2797  -42.5008  -58.2909 H         1 UNK         0.1034 
     83 H83        25.9126  -43.1662  -58.4516 H         1 UNK         0.0482 
     84 H84        25.9543  -46.2633  -59.4254 H         1 UNK         0.3460 
     85 H85        26.7500  -46.0518  -60.9663 H         1 UNK         0.3460 
     86 H86        26.6726  -45.7318  -57.1283 H         1 UNK         0.2989 
     87 H87        24.5671  -45.9190  -55.1250 H         1 UNK         0.0559 
     88 H88        22.5299  -47.3099  -55.5523 H         1 UNK         0.0848 
     89 H89        22.4937  -46.7453  -57.2224 H         1 UNK         0.0848 
     90 H90        22.2445  -45.6149  -55.9002 H         1 UNK         0.0848 
     91 H91        25.5782  -47.8105  -55.5668 H         1 UNK         0.3144 
     92 H92        25.2739  -50.2726  -57.2539 H         1 UNK         0.0727 
     93 H93        27.2283  -50.7140  -58.7825 H         1 UNK         0.0790 
     94 H94        27.3260  -48.9903  -59.1422 H         1 UNK         0.0790 
     95 H95        25.9077  -49.9156  -59.6181 H         1 UNK         0.0790 
     96 H96        27.6919  -48.6586  -56.5786 H         1 UNK         0.3215 
     97 H97        27.7258  -49.8247  -53.2995 H         1 UNK         0.0863 
     98 H98        30.1290  -50.4889  -53.6830 H         1 UNK         0.0808 
     99 H99        29.0030  -51.7625  -54.1270 H         1 UNK         0.0808 
    100 H100       29.7614  -50.7927  -55.3798 H         1 UNK         0.0808 
    101 H101       29.6544  -48.2935  -54.7427 H         1 UNK         0.3118 
    102 H102       27.7614  -45.3657  -55.1950 H         1 UNK         0.0546 
    103 H103       28.5586  -45.3127  -52.6792 H         1 UNK         0.0828 
    104 H104       29.0962  -44.0889  -53.8029 H         1 UNK         0.0828 
    105 H105       30.1707  -45.4150  -53.3767 H         1 UNK         0.0828 
    106 H106       30.5626  -45.9233  -55.5640 H         1 UNK         0.3005 
    107 H107       30.0892  -47.0779  -58.9237 H         1 UNK         0.1257 
    108 H108       30.9491  -44.7884  -58.2061 H         1 UNK         0.0775 
    109 H109       31.9847  -45.8085  -59.1435 H         1 UNK         0.0775 
    110 H110       34.1575  -43.5327  -56.6623 H         1 UNK         0.0840 
    111 H111       32.9845  -43.3322  -57.9369 H         1 UNK         0.0840 
    112 H112       31.4687  -48.7279  -58.5437 H         1 UNK         0.2987 
    113 H113       31.8229  -50.8043  -57.0391 H         1 UNK         0.0785 
    114 H114       34.3489  -49.0515  -57.2388 H         1 UNK         0.0798 
    115 H115       33.4105  -49.6619  -58.5965 H         1 UNK         0.0798 
    116 H116       34.3086  -50.7778  -57.5889 H         1 UNK         0.0798 
    117 H117       33.1628  -49.6239  -54.7000 H         1 UNK         0.3079 
    118 H118       33.3195  -52.8199  -53.0901 H         1 UNK         0.0794 
    119 H119       35.5819  -50.8838  -53.8140 H         1 UNK         0.0786 
    120 H120       35.5688  -52.6160  -54.1170 H         1 UNK         0.0786 
    121 H121       35.5894  -52.0190  -52.4651 H         1 UNK         0.0786 
    122 H122       33.5811  -49.8692  -52.6611 H         1 UNK         0.3032 
    123 H123       30.8601  -49.6842  -50.5831 H         1 UNK         0.1094 
    124 H124       33.5447  -50.2545  -49.2094 H         1 UNK         0.0794 
    125 H125       32.2136  -49.3247  -48.5184 H         1 UNK         0.0794 
    126 H126       32.0130  -51.0371  -48.8449 H         1 UNK         0.0794 
    127 H127       33.4971  -48.3466  -50.7829 H         1 UNK         0.3016 
@<TRIPOS>BOND
     1    1    2 1    
     2    1   67 1    
     3    1   68 1    
     4    1   69 1    
     5    2    3 2    
     6    2    4 am   BACKBONE|DICT|INTERRES
     7    4    5 1    
     8    4   70 1    
     9    5    6 1    
    10    5   65 1    
    11    5   71 1    
    12    6    7 1    
    13    6   72 1    
    14    6   73 1    
    15    7    8 1    
    16    8    9 1    
    17    8   74 1    
    18    8   75 1    
    19    9   10 ar   
    20    9   14 ar   
    21   10   11 ar   
    22   10   76 1    
    23   11   12 ar   
    24   11   48 1    
    25   12   13 ar   
    26   12   77 1    
    27   13   14 ar   
    28   13   15 1    
    29   14   78 1    
    30   15   16 1    
    31   15   79 1    
    32   15   80 1    
    33   16   17 1    
    34   17   18 1    
    35   17   81 1    
    36   17   82 1    
    37   18   19 1    
    38   18   22 1    
    39   18   83 1    
    40   19   20 am   BACKBONE|DICT|INTERRES
    41   19   21 2    
    42   20   84 1    
    43   20   85 1    
    44   22   23 am   BACKBONE|DICT|INTERRES
    45   22   86 1    
    46   23   24 2    
    47   23   25 1    
    48   25   26 1    
    49   25   27 1    
    50   25   87 1    
    51   26   88 1    
    52   26   89 1    
    53   26   90 1    
    54   27   28 am   BACKBONE|DICT|INTERRES
    55   27   91 1    
    56   28   29 2    
    57   28   30 1    
    58   30   31 1    
    59   30   32 1    
    60   30   92 1    
    61   31   93 1    
    62   31   94 1    
    63   31   95 1    
    64   32   33 am   BACKBONE|DICT|INTERRES
    65   32   96 1    
    66   33   34 2    
    67   33   35 1    
    68   35   36 1    
    69   35   37 1    
    70   35   97 1    
    71   36   98 1    
    72   36   99 1    
    73   36  100 1    
    74   37   38 am   BACKBONE|DICT|INTERRES
    75   37  101 1    
    76   38   39 2    
    77   38   40 1    
    78   40   41 1    
    79   40   42 1    
    80   40  102 1    
    81   41  103 1    
    82   41  104 1    
    83   41  105 1    
    84   42   43 am   BACKBONE|DICT|INTERRES
    85   42  106 1    
    86   43   44 2    
    87   43   45 1    
    88   45   46 1    
    89   45   49 1    
    90   45  107 1    
    91   46   47 1    
    92   46  108 1    
    93   46  109 1    
    94   47   48 1    
    95   48  110 1    
    96   48  111 1    
    97   49   50 am   BACKBONE|DICT|INTERRES
    98   49  112 1    
    99   50   51 2    
   100   50   52 1    
   101   52   53 1    
   102   52   54 1    
   103   52  113 1    
   104   53  114 1    
   105   53  115 1    
   106   53  116 1    
   107   54   55 am   BACKBONE|DICT|INTERRES
   108   54  117 1    
   109   55   56 2    
   110   55   57 1    
   111   57   58 1    
   112   57   59 1    
   113   57  118 1    
   114   58  119 1    
   115   58  120 1    
   116   58  121 1    
   117   59   60 am   BACKBONE|DICT|INTERRES
   118   59  122 1    
   119   60   61 2    
   120   60   62 1    
   121   62   63 1    
   122   62   64 1    
   123   62  123 1    
   124   63  124 1    
   125   63  125 1    
   126   63  126 1    
   127   64   65 am   BACKBONE|DICT|INTERRES
   128   64  127 1    
   129   65   66 2    
@<TRIPOS>SUBSTRUCTURE
     1 UNK         1 GROUP             0       ****    0 ROOT    
