@<TRIPOS>MOLECULE
3R134
127   129    1
SMALL
USER_CHARGES


@<TRIPOS>ATOM
      1 CA         30.0655  -44.8994  -52.6252 C.3       0 UNK        -0.1968 
      2 C          31.2717  -45.1647  -51.7380 C.2       0 UNK         0.4852 
      3 O          31.1319  -45.7966  -50.6906 O.2       0 UNK        -0.5359 
      4 N          32.4536  -44.6822  -52.1451 N.am      1 UNK        -0.4300 
      5 CA         33.7082  -44.7973  -51.3867 C.3       1 UNK         0.0863 
      6 C6         34.7368  -43.7148  -51.7961 C.3       11 UNK        -0.0953 
      7 S7         34.0900  -42.0223  -51.5826 S.3       11 UNK        -0.2369 
      8 C8         34.2629  -41.3396  -53.2601 C.3       11 UNK         0.0226 
      9 C9         33.2596  -41.9344  -54.2384 C.ar      11 UNK        -0.0699 
     10 C10        33.6605  -42.9104  -55.1576 C.ar      11 UNK        -0.0804 
     11 C11        32.7524  -43.4129  -56.0924 C.ar      11 UNK        -0.0871 
     12 C12        31.4508  -42.9104  -56.1201 C.ar      11 UNK        -0.1008 
     13 C13        31.0164  -41.9743  -55.1787 C.ar      11 UNK        -0.0735 
     14 C14        31.9342  -41.4840  -54.2432 C.ar      11 UNK        -0.0945 
     15 C15        29.5721  -41.4740  -55.1762 C.3       11 UNK         0.0169 
     16 S16        28.3316  -42.8204  -55.2237 S.3       11 UNK        -0.2669 
     17 C17        28.0932  -43.0656  -57.0200 C.3       11 UNK        -0.0850 
     18 CA         26.6456  -43.4658  -57.3973 C.3       10 UNK         0.0855 
     19 C          26.4433  -43.3068  -58.9342 C.2       10 UNK         0.5543 
     20 N          26.4682  -44.3733  -59.7226 N.am      10 UNK        -0.7343 
     21 O          26.2671  -42.1900  -59.4150 O.2       10 UNK        -0.5027 
     22 N          26.3138  -44.7945  -56.8560 N.am      10 UNK        -0.4495 
     23 C          25.1184  -45.3909  -56.9282 C.2       10 UNK         0.4903 
     24 O          24.1076  -44.8691  -57.4035 O.2       10 UNK        -0.4860 
     25 CA         25.0528  -46.8213  -56.3634 C.3       9 UNK         0.0227 
     26 CB         23.6733  -47.1193  -55.7478 C.3       9 UNK        -0.1964 
     27 N          25.3857  -47.9010  -57.3045 N.am      9 UNK        -0.4231 
     28 C          26.2904  -47.9411  -58.2972 C.2       9 UNK         0.5014 
     29 O          26.9240  -46.9761  -58.7251 O.2       9 UNK        -0.5270 
     30 CA         26.5685  -49.3393  -58.8767 C.3       8 UNK         0.0284 
     31 CB         27.5968  -49.3209  -60.0235 C.3       8 UNK        -0.1977 
     32 N          27.0603  -50.2103  -57.8083 N.am      8 UNK        -0.4342 
     33 C          26.2746  -50.9322  -56.9992 C.2       8 UNK         0.5039 
     34 O          25.0535  -51.0189  -57.1371 O.2       8 UNK        -0.5547 
     35 CA         26.9506  -51.6025  -55.7955 C.3       7 UNK         0.0281 
     36 CB         27.8534  -52.7636  -56.2435 C.3       7 UNK        -0.1963 
     37 N          27.7169  -50.6431  -54.9951 N.am      7 UNK        -0.4444 
     38 C          27.1840  -49.6265  -54.2991 C.2       7 UNK         0.5104 
     39 O          25.9743  -49.4195  -54.2069 O.2       7 UNK        -0.5100 
     40 CA         28.1584  -48.6755  -53.5838 C.3       6 UNK         0.0396 
     41 CB         28.5942  -49.2520  -52.2281 C.3       6 UNK        -0.1801 
     42 N          29.3425  -48.3836  -54.3884 N.am      6 UNK        -0.4747 
     43 C          29.3660  -47.5717  -55.4554 C.2       6 UNK         0.5012 
     44 O          28.4068  -46.8994  -55.8330 O.2       6 UNK        -0.5003 
     45 CA         30.7070  -47.4766  -56.2100 C.3       5 UNK         0.0782 
     46 C46        31.5663  -46.3598  -55.5707 C.3       11 UNK        -0.0868 
     47 S47        33.2306  -46.1533  -56.2960 S.3       11 UNK        -0.2515 
     48 C48        33.1585  -44.5042  -57.0750 C.3       11 UNK         0.0199 
     49 N          31.4032  -48.7665  -56.2469 N.am      5 UNK        -0.4607 
     50 C          30.9708  -49.8606  -56.8880 C.2       4 UNK         0.5031 
     51 O          29.9276  -49.9120  -57.5397 O.2       4 UNK        -0.5119 
     52 CA         31.8323  -51.1257  -56.7375 C.3       4 UNK         0.0263 
     53 CB         33.0260  -51.0860  -57.7047 C.3       4 UNK        -0.1967 
     54 N          32.3135  -51.3199  -55.3664 N.am      4 UNK        -0.4237 
     55 C          31.5167  -51.5651  -54.3160 C.2       3 UNK         0.4908 
     56 O          30.2974  -51.6974  -54.3997 O.2       3 UNK        -0.5102 
     57 CA         32.1798  -51.6226  -52.9299 C.3       3 UNK         0.0241 
     58 CB         32.7353  -53.0290  -52.6545 C.3       3 UNK        -0.1971 
     59 N          33.2375  -50.6247  -52.7336 N.am      3 UNK        -0.4139 
     60 C          33.0702  -49.2999  -52.8451 C.2       2 UNK         0.5016 
     61 O          32.0088  -48.7654  -53.1788 O.2       2 UNK        -0.5319 
     62 CA         34.3041  -48.4329  -52.5741 C.3       2 UNK         0.0286 
     63 CB         35.2934  -48.4965  -53.7510 C.3       2 UNK        -0.1963 
     64 N          33.8721  -47.0516  -52.3846 N.am      2 UNK        -0.4790 
     65 C          34.3480  -46.2017  -51.4681 C.2       1 UNK         0.5024 
     66 O          35.2691  -46.4845  -50.7000 O.2       1 UNK        -0.4888 
     67 H67        29.3312  -44.2970  -52.0914 H         1 UNK         0.0892 
     68 H68        30.3400  -44.3653  -53.5337 H         1 UNK         0.0892 
     69 H69        29.5921  -45.8382  -52.9096 H         1 UNK         0.0892 
     70 H70        32.5104  -44.1408  -52.9972 H         1 UNK         0.3107 
     71 H71        33.4712  -44.6359  -50.3327 H         1 UNK         0.0773 
     72 H72        35.0644  -43.8662  -52.8253 H         1 UNK         0.0680 
     73 H73        35.6362  -43.7922  -51.1821 H         1 UNK         0.0680 
     74 H74        35.2850  -41.4917  -53.6107 H         1 UNK         0.0650 
     75 H75        34.1189  -40.2593  -53.2119 H         1 UNK         0.0650 
     76 H76        34.6779  -43.2774  -55.1518 H         1 UNK         0.1397 
     77 H77        30.7692  -43.2822  -56.8656 H         1 UNK         0.1363 
     78 H78        31.6238  -40.7398  -53.5222 H         1 UNK         0.1355 
     79 H79        29.4240  -40.7861  -56.0092 H         1 UNK         0.0707 
     80 H80        29.3853  -40.8926  -54.2721 H         1 UNK         0.0707 
     81 H81        28.3836  -42.1485  -57.5364 H         1 UNK         0.1034 
     82 H82        28.7726  -43.8436  -57.3697 H         1 UNK         0.1034 
     83 H83        25.9638  -42.7548  -56.9269 H         1 UNK         0.0482 
     84 H84        26.3367  -44.2636  -60.7147 H         1 UNK         0.3460 
     85 H85        26.6280  -45.2995  -59.3272 H         1 UNK         0.3460 
     86 H86        27.0906  -45.3376  -56.4940 H         1 UNK         0.2989 
     87 H87        25.7798  -46.8818  -55.5523 H         1 UNK         0.0559 
     88 H88        23.3860  -46.3442  -55.0359 H         1 UNK         0.0848 
     89 H89        23.6756  -48.0661  -55.2072 H         1 UNK         0.0848 
     90 H90        22.8940  -47.1689  -56.5092 H         1 UNK         0.0848 
     91 H91        24.9659  -48.7947  -57.0776 H         1 UNK         0.3144 
     92 H92        25.6299  -49.7274  -59.2781 H         1 UNK         0.0727 
     93 H93        28.5575  -48.9188  -59.6991 H         1 UNK         0.0790 
     94 H94        27.2467  -48.7024  -60.8509 H         1 UNK         0.0790 
     95 H95        27.7697  -50.3226  -60.4168 H         1 UNK         0.0790 
     96 H96        28.0573  -50.1477  -57.6058 H         1 UNK         0.3215 
     97 H97        26.1636  -52.0134  -55.1594 H         1 UNK         0.0863 
     98 H98        28.2521  -53.3064  -55.3863 H         1 UNK         0.0808 
     99 H99        28.6979  -52.4162  -56.8393 H         1 UNK         0.0808 
    100 H100       27.2974  -53.4801  -56.8496 H         1 UNK         0.0808 
    101 H101       28.7210  -50.7964  -54.9406 H         1 UNK         0.3118 
    102 H102       27.6330  -47.7363  -53.3974 H         1 UNK         0.0546 
    103 H103       29.1279  -50.1958  -52.3424 H         1 UNK         0.0828 
    104 H104       27.7308  -49.4397  -51.5887 H         1 UNK         0.0828 
    105 H105       29.2495  -48.5610  -51.6968 H         1 UNK         0.0828 
    106 H106       30.2137  -48.8205  -54.1011 H         1 UNK         0.3005 
    107 H107       30.4785  -47.1941  -57.2404 H         1 UNK         0.1257 
    108 H108       31.0172  -45.4228  -55.6233 H         1 UNK         0.0775 
    109 H109       31.7111  -46.5528  -54.5083 H         1 UNK         0.0775 
    110 H110       34.1375  -44.2690  -57.4949 H         1 UNK         0.0840 
    111 H111       32.4685  -44.5415  -57.9195 H         1 UNK         0.0840 
    112 H112       32.2505  -48.8224  -55.7020 H         1 UNK         0.2987 
    113 H113       31.2096  -51.9838  -56.9993 H         1 UNK         0.0785 
    114 H114       32.6879  -50.9585  -58.7342 H         1 UNK         0.0798 
    115 H115       33.5985  -52.0130  -57.6666 H         1 UNK         0.0798 
    116 H116       33.7045  -50.2618  -57.4805 H         1 UNK         0.0798 
    117 H117       33.3061  -51.2280  -55.2076 H         1 UNK         0.3079 
    118 H118       31.4016  -51.4157  -52.1924 H         1 UNK         0.0794 
    119 H119       33.1080  -53.1160  -51.6337 H         1 UNK         0.0786 
    120 H120       33.5502  -53.2840  -53.3332 H         1 UNK         0.0786 
    121 H121       31.9591  -53.7858  -52.7784 H         1 UNK         0.0786 
    122 H122       34.1446  -50.9785  -52.4646 H         1 UNK         0.3032 
    123 H123       34.7855  -48.8048  -51.6665 H         1 UNK         0.1094 
    124 H124       34.8318  -48.1745  -54.6849 H         1 UNK         0.0794 
    125 H125       36.1597  -47.8593  -53.5723 H         1 UNK         0.0794 
    126 H126       35.6662  -49.5101  -53.9024 H         1 UNK         0.0794 
    127 H127       33.0508  -46.7914  -52.9134 H         1 UNK         0.3016 
@<TRIPOS>BOND
     1    1    2 1    
     2    1   67 1    
     3    1   68 1    
     4    1   69 1    
     5    2    3 2    
     6    2    4 am   BACKBONE|DICT|INTERRES
     7    4    5 1    
     8    4   70 1    
     9    5    6 1    
    10    5   65 1    
    11    5   71 1    
    12    6    7 1    
    13    6   72 1    
    14    6   73 1    
    15    7    8 1    
    16    8    9 1    
    17    8   74 1    
    18    8   75 1    
    19    9   10 ar   
    20    9   14 ar   
    21   10   11 ar   
    22   10   76 1    
    23   11   12 ar   
    24   11   48 1    
    25   12   13 ar   
    26   12   77 1    
    27   13   14 ar   
    28   13   15 1    
    29   14   78 1    
    30   15   16 1    
    31   15   79 1    
    32   15   80 1    
    33   16   17 1    
    34   17   18 1    
    35   17   81 1    
    36   17   82 1    
    37   18   19 1    
    38   18   22 1    
    39   18   83 1    
    40   19   20 am   BACKBONE|DICT|INTERRES
    41   19   21 2    
    42   20   84 1    
    43   20   85 1    
    44   22   23 am   BACKBONE|DICT|INTERRES
    45   22   86 1    
    46   23   24 2    
    47   23   25 1    
    48   25   26 1    
    49   25   27 1    
    50   25   87 1    
    51   26   88 1    
    52   26   89 1    
    53   26   90 1    
    54   27   28 am   BACKBONE|DICT|INTERRES
    55   27   91 1    
    56   28   29 2    
    57   28   30 1    
    58   30   31 1    
    59   30   32 1    
    60   30   92 1    
    61   31   93 1    
    62   31   94 1    
    63   31   95 1    
    64   32   33 am   BACKBONE|DICT|INTERRES
    65   32   96 1    
    66   33   34 2    
    67   33   35 1    
    68   35   36 1    
    69   35   37 1    
    70   35   97 1    
    71   36   98 1    
    72   36   99 1    
    73   36  100 1    
    74   37   38 am   BACKBONE|DICT|INTERRES
    75   37  101 1    
    76   38   39 2    
    77   38   40 1    
    78   40   41 1    
    79   40   42 1    
    80   40  102 1    
    81   41  103 1    
    82   41  104 1    
    83   41  105 1    
    84   42   43 am   BACKBONE|DICT|INTERRES
    85   42  106 1    
    86   43   44 2    
    87   43   45 1    
    88   45   46 1    
    89   45   49 1    
    90   45  107 1    
    91   46   47 1    
    92   46  108 1    
    93   46  109 1    
    94   47   48 1    
    95   48  110 1    
    96   48  111 1    
    97   49   50 am   BACKBONE|DICT|INTERRES
    98   49  112 1    
    99   50   51 2    
   100   50   52 1    
   101   52   53 1    
   102   52   54 1    
   103   52  113 1    
   104   53  114 1    
   105   53  115 1    
   106   53  116 1    
   107   54   55 am   BACKBONE|DICT|INTERRES
   108   54  117 1    
   109   55   56 2    
   110   55   57 1    
   111   57   58 1    
   112   57   59 1    
   113   57  118 1    
   114   58  119 1    
   115   58  120 1    
   116   58  121 1    
   117   59   60 am   BACKBONE|DICT|INTERRES
   118   59  122 1    
   119   60   61 2    
   120   60   62 1    
   121   62   63 1    
   122   62   64 1    
   123   62  123 1    
   124   63  124 1    
   125   63  125 1    
   126   63  126 1    
   127   64   65 am   BACKBONE|DICT|INTERRES
   128   64  127 1    
   129   65   66 2    
@<TRIPOS>SUBSTRUCTURE
     1 UNK         1 GROUP             0       ****    0 ROOT    
