@<TRIPOS>MOLECULE
3R134
127   129    1
SMALL
USER_CHARGES


@<TRIPOS>ATOM
      1 CA         39.3269  -45.4073  -53.1320 C.3       0 UNK        -0.1968 
      2 C          38.0982  -46.0490  -53.7587 C.2       0 UNK         0.4852 
      3 O          38.2007  -47.1284  -54.3441 O.2       0 UNK        -0.5359 
      4 N          36.9309  -45.4058  -53.6291 N.am      1 UNK        -0.4300 
      5 CA         35.6315  -45.8389  -54.1608 C.3       1 UNK         0.0863 
      6 C6         34.7024  -44.6208  -54.4161 C.3       11 UNK        -0.0953 
      7 S7         34.3964  -43.5804  -52.9463 S.3       11 UNK        -0.2369 
      8 C8         33.2919  -42.3094  -53.6378 C.3       11 UNK         0.0226 
      9 C9         31.8932  -42.8419  -53.9224 C.ar      11 UNK        -0.0699 
     10 C10        31.0102  -43.0916  -52.8670 C.ar      11 UNK        -0.0804 
     11 C11        29.7086  -43.5396  -53.1159 C.ar      11 UNK        -0.0871 
     12 C12        29.2927  -43.7350  -54.4358 C.ar      11 UNK        -0.1008 
     13 C13        30.1660  -43.4918  -55.4997 C.ar      11 UNK        -0.0735 
     14 C14        31.4662  -43.0479  -55.2383 C.ar      11 UNK        -0.0945 
     15 C15        29.6902  -43.6931  -56.9289 C.3       11 UNK         0.0169 
     16 S16        28.6983  -42.2696  -57.4773 S.3       11 UNK        -0.2669 
     17 C17        28.1366  -42.8176  -59.1249 C.3       11 UNK        -0.0850 
     18 CA         26.6677  -43.3200  -59.1160 C.3       10 UNK         0.0855 
     19 C          26.1398  -43.5237  -60.5681 C.2       10 UNK         0.5543 
     20 N          25.7662  -44.7260  -60.9914 N.am      10 UNK        -0.7343 
     21 O          26.0636  -42.5615  -61.3281 O.2       10 UNK        -0.5027 
     22 N          26.5136  -44.4918  -58.2427 N.am      10 UNK        -0.4495 
     23 C          25.3621  -44.9428  -57.7311 C.2       10 UNK         0.4903 
     24 O          24.2852  -44.3550  -57.8412 O.2       10 UNK        -0.4860 
     25 CA         25.4405  -46.2890  -56.9792 C.3       9 UNK         0.0227 
     26 CB         24.0900  -47.0330  -56.9389 C.3       9 UNK        -0.1964 
     27 N          26.5035  -47.1743  -57.4786 N.am      9 UNK        -0.4231 
     28 C          26.6539  -47.6392  -58.7298 C.2       9 UNK         0.5014 
     29 O          25.8834  -47.3847  -59.6561 O.2       9 UNK        -0.5270 
     30 CA         27.8937  -48.4971  -59.0076 C.3       8 UNK         0.0284 
     31 CB         29.1284  -47.6036  -59.2240 C.3       8 UNK        -0.1977 
     32 N          28.1495  -49.4344  -57.9114 N.am      8 UNK        -0.4342 
     33 C          28.0672  -50.7665  -58.0179 C.2       8 UNK         0.5039 
     34 O          27.7829  -51.3580  -59.0608 O.2       8 UNK        -0.5547 
     35 CA         28.3621  -51.5934  -56.7563 C.3       7 UNK         0.0281 
     36 CB         29.8674  -51.8845  -56.6408 C.3       7 UNK        -0.1963 
     37 N          27.8858  -50.9810  -55.5138 N.am      7 UNK        -0.4444 
     38 C          26.5940  -50.8857  -55.1641 C.2       7 UNK         0.5104 
     39 O          25.6599  -51.2142  -55.8955 O.2       7 UNK        -0.5100 
     40 CA         26.2890  -50.3610  -53.7532 C.3       6 UNK         0.0396 
     41 CB         26.5295  -51.4641  -52.7093 C.3       6 UNK        -0.1801 
     42 N          27.1178  -49.2025  -53.4273 N.am      6 UNK        -0.4747 
     43 C          26.6922  -47.9307  -53.4183 C.2       6 UNK         0.5012 
     44 O          25.5251  -47.5941  -53.6168 O.2       6 UNK        -0.5003 
     45 CA         27.7532  -46.8410  -53.1500 C.3       5 UNK         0.0782 
     46 C46        27.7255  -46.4244  -51.6561 C.3       11 UNK        -0.0868 
     47 S47        29.1094  -45.3573  -51.1207 S.3       11 UNK        -0.2515 
     48 C48        28.7525  -43.7800  -51.9556 C.3       11 UNK         0.0199 
     49 N          29.0941  -47.2289  -53.5947 N.am      5 UNK        -0.4607 
     50 C          29.4452  -47.5361  -54.8486 C.2       4 UNK         0.5031 
     51 O          28.6699  -47.5174  -55.8036 O.2       4 UNK        -0.5119 
     52 CA         30.8897  -48.0035  -55.0678 C.3       4 UNK         0.0263 
     53 CB         31.7594  -46.8117  -55.4805 C.3       4 UNK        -0.1967 
     54 N          31.4798  -48.6768  -53.9025 N.am      4 UNK        -0.4237 
     55 C          30.9986  -49.8002  -53.3428 C.2       3 UNK         0.4908 
     56 O          29.9515  -50.3364  -53.7132 O.2       3 UNK        -0.5102 
     57 CA         31.7576  -50.4134  -52.1482 C.3       3 UNK         0.0241 
     58 CB         31.8229  -51.9528  -52.2427 C.3       3 UNK        -0.1971 
     59 N          33.0879  -49.8424  -51.8946 N.am      3 UNK        -0.4139 
     60 C          34.1709  -49.8931  -52.6842 C.2       2 UNK         0.5016 
     61 O          34.2145  -50.4534  -53.7813 O.2       2 UNK        -0.5319 
     62 CA         35.4145  -49.1518  -52.1634 C.3       2 UNK         0.0286 
     63 CB         36.6211  -50.0998  -52.0616 C.3       2 UNK        -0.1963 
     64 N          35.7743  -48.0055  -53.0017 N.am      2 UNK        -0.4790 
     65 C          34.9876  -46.9643  -53.3095 C.2       1 UNK         0.5024 
     66 O          33.8157  -46.8773  -52.9366 O.2       1 UNK        -0.4888 
     67 H67        39.7580  -46.0733  -52.3850 H         1 UNK         0.0892 
     68 H68        40.0808  -45.2172  -53.8953 H         1 UNK         0.0892 
     69 H69        39.0899  -44.4608  -52.6465 H         1 UNK         0.0892 
     70 H70        36.8992  -44.5425  -53.1046 H         1 UNK         0.3107 
     71 H71        35.8132  -46.2920  -55.1379 H         1 UNK         0.0773 
     72 H72        35.1494  -43.9860  -55.1827 H         1 UNK         0.0680 
     73 H73        33.7489  -44.9421  -54.8304 H         1 UNK         0.0680 
     74 H74        33.2206  -41.4860  -52.9258 H         1 UNK         0.0650 
     75 H75        33.7415  -41.8918  -54.5400 H         1 UNK         0.0650 
     76 H76        31.3369  -42.9324  -51.8483 H         1 UNK         0.1397 
     77 H77        28.2830  -44.0575  -54.6449 H         1 UNK         0.1363 
     78 H78        32.1405  -42.8487  -56.0599 H         1 UNK         0.1355 
     79 H79        30.5391  -43.8274  -57.6013 H         1 UNK         0.0707 
     80 H80        29.0983  -44.6073  -56.9878 H         1 UNK         0.0707 
     81 H81        28.2411  -41.9622  -59.7955 H         1 UNK         0.1034 
     82 H82        28.8080  -43.5846  -59.5154 H         1 UNK         0.1034 
     83 H83        26.0530  -42.5227  -58.6935 H         1 UNK         0.0482 
     84 H84        25.8080  -45.5393  -60.3863 H         1 UNK         0.3460 
     85 H85        25.4252  -44.8269  -61.9340 H         1 UNK         0.3460 
     86 H86        27.3398  -45.0512  -58.1055 H         1 UNK         0.2989 
     87 H87        25.7118  -46.0416  -55.9524 H         1 UNK         0.0559 
     88 H88        23.3244  -46.4305  -56.4489 H         1 UNK         0.0848 
     89 H89        24.1711  -47.9656  -56.3799 H         1 UNK         0.0848 
     90 H90        23.7282  -47.2701  -57.9398 H         1 UNK         0.0848 
     91 H91        27.2452  -47.3756  -56.8081 H         1 UNK         0.3144 
     92 H92        27.7081  -49.0366  -59.9387 H         1 UNK         0.0727 
     93 H93        29.3807  -47.0248  -58.3353 H         1 UNK         0.0790 
     94 H94        28.9603  -46.8965  -60.0377 H         1 UNK         0.0790 
     95 H95        30.0016  -48.1995  -59.4901 H         1 UNK         0.0790 
     96 H96        28.3700  -49.0261  -57.0091 H         1 UNK         0.3215 
     97 H97        27.8470  -52.5500  -56.8697 H         1 UNK         0.0863 
     98 H98        30.0823  -52.5333  -55.7914 H         1 UNK         0.0808 
     99 H99        30.4494  -50.9715  -56.5176 H         1 UNK         0.0808 
    100 H100       30.2372  -52.3882  -57.5350 H         1 UNK         0.0808 
    101 H101       28.6014  -50.7194  -54.8374 H         1 UNK         0.3118 
    102 H102       25.2307  -50.0936  -53.7185 H         1 UNK         0.0546 
    103 H103       27.5740  -51.7777  -52.6806 H         1 UNK         0.0828 
    104 H104       25.9288  -52.3477  -52.9295 H         1 UNK         0.0828 
    105 H105       26.2548  -51.1276  -51.7096 H         1 UNK         0.0828 
    106 H106       28.1057  -49.3802  -53.2868 H         1 UNK         0.3005 
    107 H107       27.4575  -45.9794  -53.7488 H         1 UNK         0.1257 
    108 H108       26.7855  -45.9219  -51.4199 H         1 UNK         0.0775 
    109 H109       27.7569  -47.3099  -51.0177 H         1 UNK         0.0775 
    110 H110       27.7151  -43.7518  -52.2922 H         1 UNK         0.0840 
    111 H111       28.8546  -42.9704  -51.2315 H         1 UNK         0.0840 
    112 H112       29.8068  -47.2415  -52.8797 H         1 UNK         0.2987 
    113 H113       30.8814  -48.7188  -55.8915 H         1 UNK         0.0785 
    114 H114       31.3729  -46.3371  -56.3835 H         1 UNK         0.0798 
    115 H115       32.7846  -47.1179  -55.6879 H         1 UNK         0.0798 
    116 H116       31.7780  -46.0533  -54.6967 H         1 UNK         0.0798 
    117 H117       32.3225  -48.2619  -53.5192 H         1 UNK         0.3079 
    118 H118       31.1594  -50.1682  -51.2695 H         1 UNK         0.0794 
    119 H119       32.3345  -52.3827  -51.3817 H         1 UNK         0.0786 
    120 H120       32.3435  -52.2822  -53.1424 H         1 UNK         0.0786 
    121 H121       30.8228  -52.3875  -52.2722 H         1 UNK         0.0786 
    122 H122       33.1641  -49.3181  -51.0333 H         1 UNK         0.3032 
    123 H123       35.2044  -48.7682  -51.1626 H         1 UNK         0.1094 
    124 H124       36.9194  -50.4794  -53.0399 H         1 UNK         0.0794 
    125 H125       37.4834  -49.6002  -51.6193 H         1 UNK         0.0794 
    126 H126       36.3891  -50.9616  -51.4342 H         1 UNK         0.0794 
    127 H127       36.7134  -47.9967  -53.3894 H         1 UNK         0.3016 
@<TRIPOS>BOND
     1    1    2 1    
     2    1   67 1    
     3    1   68 1    
     4    1   69 1    
     5    2    3 2    
     6    2    4 am   BACKBONE|DICT|INTERRES
     7    4    5 1    
     8    4   70 1    
     9    5    6 1    
    10    5   65 1    
    11    5   71 1    
    12    6    7 1    
    13    6   72 1    
    14    6   73 1    
    15    7    8 1    
    16    8    9 1    
    17    8   74 1    
    18    8   75 1    
    19    9   10 ar   
    20    9   14 ar   
    21   10   11 ar   
    22   10   76 1    
    23   11   12 ar   
    24   11   48 1    
    25   12   13 ar   
    26   12   77 1    
    27   13   14 ar   
    28   13   15 1    
    29   14   78 1    
    30   15   16 1    
    31   15   79 1    
    32   15   80 1    
    33   16   17 1    
    34   17   18 1    
    35   17   81 1    
    36   17   82 1    
    37   18   19 1    
    38   18   22 1    
    39   18   83 1    
    40   19   20 am   BACKBONE|DICT|INTERRES
    41   19   21 2    
    42   20   84 1    
    43   20   85 1    
    44   22   23 am   BACKBONE|DICT|INTERRES
    45   22   86 1    
    46   23   24 2    
    47   23   25 1    
    48   25   26 1    
    49   25   27 1    
    50   25   87 1    
    51   26   88 1    
    52   26   89 1    
    53   26   90 1    
    54   27   28 am   BACKBONE|DICT|INTERRES
    55   27   91 1    
    56   28   29 2    
    57   28   30 1    
    58   30   31 1    
    59   30   32 1    
    60   30   92 1    
    61   31   93 1    
    62   31   94 1    
    63   31   95 1    
    64   32   33 am   BACKBONE|DICT|INTERRES
    65   32   96 1    
    66   33   34 2    
    67   33   35 1    
    68   35   36 1    
    69   35   37 1    
    70   35   97 1    
    71   36   98 1    
    72   36   99 1    
    73   36  100 1    
    74   37   38 am   BACKBONE|DICT|INTERRES
    75   37  101 1    
    76   38   39 2    
    77   38   40 1    
    78   40   41 1    
    79   40   42 1    
    80   40  102 1    
    81   41  103 1    
    82   41  104 1    
    83   41  105 1    
    84   42   43 am   BACKBONE|DICT|INTERRES
    85   42  106 1    
    86   43   44 2    
    87   43   45 1    
    88   45   46 1    
    89   45   49 1    
    90   45  107 1    
    91   46   47 1    
    92   46  108 1    
    93   46  109 1    
    94   47   48 1    
    95   48  110 1    
    96   48  111 1    
    97   49   50 am   BACKBONE|DICT|INTERRES
    98   49  112 1    
    99   50   51 2    
   100   50   52 1    
   101   52   53 1    
   102   52   54 1    
   103   52  113 1    
   104   53  114 1    
   105   53  115 1    
   106   53  116 1    
   107   54   55 am   BACKBONE|DICT|INTERRES
   108   54  117 1    
   109   55   56 2    
   110   55   57 1    
   111   57   58 1    
   112   57   59 1    
   113   57  118 1    
   114   58  119 1    
   115   58  120 1    
   116   58  121 1    
   117   59   60 am   BACKBONE|DICT|INTERRES
   118   59  122 1    
   119   60   61 2    
   120   60   62 1    
   121   62   63 1    
   122   62   64 1    
   123   62  123 1    
   124   63  124 1    
   125   63  125 1    
   126   63  126 1    
   127   64   65 am   BACKBONE|DICT|INTERRES
   128   64  127 1    
   129   65   66 2    
@<TRIPOS>SUBSTRUCTURE
     1 UNK         1 GROUP             0       ****    0 ROOT    
