@<TRIPOS>MOLECULE
3R134
127   129    1
SMALL
USER_CHARGES


@<TRIPOS>ATOM
      1 CA         38.1339  -47.8636  -55.8501 C.3       0 UNK        -0.1968 
      2 C          36.6884  -47.3953  -55.9322 C.2       0 UNK         0.4852 
      3 O          35.8319  -48.1440  -56.4018 O.2       0 UNK        -0.5359 
      4 N          36.4174  -46.1593  -55.4913 N.am      1 UNK        -0.4300 
      5 CA         35.0774  -45.5650  -55.4315 C.3       1 UNK         0.0863 
      6 C6         35.1694  -44.0217  -55.3237 C.3       11 UNK        -0.0953 
      7 S7         33.5971  -43.1685  -55.6889 S.3       11 UNK        -0.2369 
      8 C8         33.2807  -42.2465  -54.1486 C.3       11 UNK         0.0226 
      9 C9         31.8929  -42.5470  -53.6084 C.ar      11 UNK        -0.0699 
     10 C10        31.7052  -43.5956  -52.7028 C.ar      11 UNK        -0.0804 
     11 C11        30.4266  -43.8938  -52.2236 C.ar      11 UNK        -0.0871 
     12 C12        29.3406  -43.1130  -52.6265 C.ar      11 UNK        -0.1008 
     13 C13        29.5130  -42.0732  -53.5428 C.ar      11 UNK        -0.0735 
     14 C14        30.7937  -41.7896  -54.0274 C.ar      11 UNK        -0.0945 
     15 C15        28.3058  -41.2784  -54.0190 C.3       11 UNK         0.0169 
     16 S16        27.1232  -42.3266  -54.9284 S.3       11 UNK        -0.2669 
     17 C17        28.0688  -42.7126  -56.4409 C.3       11 UNK        -0.0850 
     18 CA         27.1434  -43.1916  -57.5927 C.3       10 UNK         0.0855 
     19 C          27.8755  -43.2058  -58.9691 C.2       10 UNK         0.5543 
     20 N          27.7361  -44.2328  -59.7995 N.am      10 UNK        -0.7343 
     21 O          28.5778  -42.2544  -59.3019 O.2       10 UNK        -0.5027 
     22 N          26.4818  -44.4647  -57.2573 N.am      10 UNK        -0.4495 
     23 C          25.2479  -44.8162  -57.6362 C.2       10 UNK         0.4903 
     24 O          24.4776  -44.0737  -58.2479 O.2       10 UNK        -0.4860 
     25 CA         24.8318  -46.2618  -57.2949 C.3       9 UNK         0.0227 
     26 CB         23.4641  -46.6533  -57.8932 C.3       9 UNK        -0.1964 
     27 N          25.8569  -47.2497  -57.6641 N.am      9 UNK        -0.4231 
     28 C          26.3834  -47.4498  -58.8836 C.2       9 UNK         0.5014 
     29 O          26.0820  -46.7860  -59.8762 O.2       9 UNK        -0.5270 
     30 CA         27.4534  -48.5445  -59.0371 C.3       8 UNK         0.0284 
     31 CB         28.8591  -47.9216  -59.0543 C.3       8 UNK        -0.1977 
     32 N          27.4003  -49.5956  -58.0177 N.am      8 UNK        -0.4342 
     33 C          26.4545  -50.5438  -57.9480 C.2       8 UNK         0.5039 
     34 O          25.4827  -50.6000  -58.7022 O.2       8 UNK        -0.5547 
     35 CA         26.6255  -51.6160  -56.8619 C.3       7 UNK         0.0281 
     36 CB         27.6628  -52.6658  -57.2948 C.3       7 UNK        -0.1963 
     37 N          27.0375  -51.0189  -55.5922 N.am      7 UNK        -0.4444 
     38 C          26.1968  -50.6640  -54.6110 C.2       7 UNK         0.5104 
     39 O          24.9838  -50.8744  -54.6354 O.2       7 UNK        -0.5100 
     40 CA         26.8059  -49.9389  -53.3959 C.3       6 UNK         0.0396 
     41 CB         27.1324  -50.9420  -52.2791 C.3       6 UNK        -0.1801 
     42 N          28.0066  -49.1650  -53.7245 N.am      6 UNK        -0.4747 
     43 C          28.0090  -48.0777  -54.5116 C.2       6 UNK         0.5012 
     44 O          26.9923  -47.6030  -55.0179 O.2       6 UNK        -0.5003 
     45 CA         29.3686  -47.4336  -54.8476 C.3       5 UNK         0.0782 
     46 C46        29.6639  -46.2325  -53.9213 C.3       11 UNK        -0.0868 
     47 S47        30.2972  -46.6815  -52.2594 S.3       11 UNK        -0.2515 
     48 C48        30.1941  -45.1075  -51.3353 C.3       11 UNK         0.0199 
     49 N          30.4907  -48.3732  -54.9015 N.am      5 UNK        -0.4607 
     50 C          30.5577  -49.5002  -55.6213 C.2       4 UNK         0.5031 
     51 O          29.6778  -49.8673  -56.4002 O.2       4 UNK        -0.5119 
     52 CA         31.7813  -50.4002  -55.3832 C.3       4 UNK         0.0263 
     53 CB         32.8935  -50.0549  -56.3830 C.3       4 UNK        -0.1967 
     54 N          32.3082  -50.3087  -54.0169 N.am      4 UNK        -0.4237 
     55 C          31.6335  -50.6052  -52.8971 C.2       3 UNK         0.4908 
     56 O          30.4848  -51.0479  -52.8927 O.2       3 UNK        -0.5102 
     57 CA         32.3238  -50.3091  -51.5535 C.3       3 UNK         0.0241 
     58 CB         33.3312  -51.4141  -51.1791 C.3       3 UNK        -0.1971 
     59 N          32.9170  -48.9645  -51.4763 N.am      3 UNK        -0.4139 
     60 C          33.9630  -48.4721  -52.1545 C.2       2 UNK         0.5016 
     61 O          34.6596  -49.1351  -52.9275 O.2       2 UNK        -0.5319 
     62 CA         34.2732  -46.9820  -51.9322 C.3       2 UNK         0.0286 
     63 CB         35.2257  -46.8006  -50.7400 C.3       2 UNK        -0.1963 
     64 N          34.8681  -46.3588  -53.1169 N.am      2 UNK        -0.4790 
     65 C          34.2411  -46.1855  -54.2911 C.2       1 UNK         0.5024 
     66 O          33.0702  -46.5081  -54.4948 O.2       1 UNK        -0.4888 
     67 H67        38.2042  -48.7484  -55.2179 H         1 UNK         0.0892 
     68 H68        38.7897  -47.0980  -55.4359 H         1 UNK         0.0892 
     69 H69        38.5011  -48.1235  -56.8426 H         1 UNK         0.0892 
     70 H70        37.1713  -45.5862  -55.1399 H         1 UNK         0.3107 
     71 H71        34.5718  -45.8055  -56.3697 H         1 UNK         0.0773 
     72 H72        35.8903  -43.6505  -56.0539 H         1 UNK         0.0680 
     73 H73        35.5635  -43.7236  -54.3513 H         1 UNK         0.0680 
     74 H74        34.0245  -42.4780  -53.3861 H         1 UNK         0.0650 
     75 H75        33.3811  -41.1793  -54.3512 H         1 UNK         0.0650 
     76 H76        32.5463  -44.2055  -52.4042 H         1 UNK         0.1397 
     77 H77        28.3465  -43.3456  -52.2690 H         1 UNK         0.1363 
     78 H78        30.9358  -40.9896  -54.7411 H         1 UNK         0.1355 
     79 H79        28.6078  -40.4393  -54.6478 H         1 UNK         0.0707 
     80 H80        27.8013  -40.8475  -53.1531 H         1 UNK         0.0707 
     81 H81        28.8271  -43.4631  -56.2103 H         1 UNK         0.1034 
     82 H82        28.6118  -41.8115  -56.7325 H         1 UNK         0.1034 
     83 H83        26.3698  -42.4299  -57.7073 H         1 UNK         0.0482 
     84 H84        27.1093  -45.0001  -59.5914 H         1 UNK         0.3460 
     85 H85        28.2155  -44.2087  -60.6851 H         1 UNK         0.3460 
     86 H86        27.0409  -45.1410  -56.7598 H         1 UNK         0.2989 
     87 H87        24.7402  -46.3056  -56.2086 H         1 UNK         0.0559 
     88 H88        23.1828  -47.6670  -57.6080 H         1 UNK         0.0848 
     89 H89        23.4686  -46.6013  -58.9826 H         1 UNK         0.0848 
     90 H90        22.6768  -45.9868  -57.5389 H         1 UNK         0.0848 
     91 H91        26.2263  -47.7886  -56.8873 H         1 UNK         0.3144 
     92 H92        27.2876  -49.0184  -60.0071 H         1 UNK         0.0727 
     93 H93        29.6270  -48.6775  -59.2204 H         1 UNK         0.0790 
     94 H94        29.0889  -47.4115  -58.1203 H         1 UNK         0.0790 
     95 H95        28.9507  -47.1869  -59.8556 H         1 UNK         0.0790 
     96 H96        28.2013  -49.6619  -57.3906 H         1 UNK         0.3215 
     97 H97        25.6666  -52.1249  -56.7395 H         1 UNK         0.0863 
     98 H98        27.7518  -53.4610  -56.5546 H         1 UNK         0.0808 
     99 H99        28.6523  -52.2295  -57.4367 H         1 UNK         0.0808 
    100 H100       27.3740  -53.1322  -58.2377 H         1 UNK         0.0808 
    101 H101       28.0155  -50.7685  -55.5038 H         1 UNK         0.3118 
    102 H102       26.0549  -49.2427  -53.0169 H         1 UNK         0.0546 
    103 H103       27.5302  -50.4408  -51.3967 H         1 UNK         0.0828 
    104 H104       27.8643  -51.6828  -52.6031 H         1 UNK         0.0828 
    105 H105       26.2379  -51.4837  -51.9688 H         1 UNK         0.0828 
    106 H106       28.8894  -49.5166  -53.3719 H         1 UNK         0.3005 
    107 H107       29.2622  -47.0363  -55.8573 H         1 UNK         0.1257 
    108 H108       28.7791  -45.6012  -53.8162 H         1 UNK         0.0775 
    109 H109       30.4173  -45.6048  -54.4004 H         1 UNK         0.0775 
    110 H110       29.2150  -45.0479  -50.8575 H         1 UNK         0.0840 
    111 H111       30.9260  -45.1182  -50.5266 H         1 UNK         0.0840 
    112 H112       31.2799  -48.1299  -54.3172 H         1 UNK         0.2987 
    113 H113       31.4689  -51.4327  -55.5509 H         1 UNK         0.0785 
    114 H114       33.2456  -49.0305  -56.2512 H         1 UNK         0.0798 
    115 H115       32.5397  -50.1492  -57.4107 H         1 UNK         0.0798 
    116 H116       33.7509  -50.7189  -56.2722 H         1 UNK         0.0798 
    117 H117       33.2475  -49.9329  -53.9032 H         1 UNK         0.3079 
    118 H118       31.5384  -50.3211  -50.7957 H         1 UNK         0.0794 
    119 H119       34.1390  -51.5008  -51.9061 H         1 UNK         0.0786 
    120 H120       32.8380  -52.3858  -51.1298 H         1 UNK         0.0786 
    121 H121       33.7781  -51.2278  -50.2025 H         1 UNK         0.0786 
    122 H122       32.4063  -48.3220  -50.8857 H         1 UNK         0.3032 
    123 H123       33.3375  -46.4615  -51.7178 H         1 UNK         0.1094 
    124 H124       36.1838  -47.2934  -50.9112 H         1 UNK         0.0794 
    125 H125       35.4199  -45.7460  -50.5428 H         1 UNK         0.0794 
    126 H126       34.8002  -47.2249  -49.8295 H         1 UNK         0.0794 
    127 H127       35.8455  -46.1166  -53.0556 H         1 UNK         0.3016 
@<TRIPOS>BOND
     1    1    2 1    
     2    1   67 1    
     3    1   68 1    
     4    1   69 1    
     5    2    3 2    
     6    2    4 am   BACKBONE|DICT|INTERRES
     7    4    5 1    
     8    4   70 1    
     9    5    6 1    
    10    5   65 1    
    11    5   71 1    
    12    6    7 1    
    13    6   72 1    
    14    6   73 1    
    15    7    8 1    
    16    8    9 1    
    17    8   74 1    
    18    8   75 1    
    19    9   10 ar   
    20    9   14 ar   
    21   10   11 ar   
    22   10   76 1    
    23   11   12 ar   
    24   11   48 1    
    25   12   13 ar   
    26   12   77 1    
    27   13   14 ar   
    28   13   15 1    
    29   14   78 1    
    30   15   16 1    
    31   15   79 1    
    32   15   80 1    
    33   16   17 1    
    34   17   18 1    
    35   17   81 1    
    36   17   82 1    
    37   18   19 1    
    38   18   22 1    
    39   18   83 1    
    40   19   20 am   BACKBONE|DICT|INTERRES
    41   19   21 2    
    42   20   84 1    
    43   20   85 1    
    44   22   23 am   BACKBONE|DICT|INTERRES
    45   22   86 1    
    46   23   24 2    
    47   23   25 1    
    48   25   26 1    
    49   25   27 1    
    50   25   87 1    
    51   26   88 1    
    52   26   89 1    
    53   26   90 1    
    54   27   28 am   BACKBONE|DICT|INTERRES
    55   27   91 1    
    56   28   29 2    
    57   28   30 1    
    58   30   31 1    
    59   30   32 1    
    60   30   92 1    
    61   31   93 1    
    62   31   94 1    
    63   31   95 1    
    64   32   33 am   BACKBONE|DICT|INTERRES
    65   32   96 1    
    66   33   34 2    
    67   33   35 1    
    68   35   36 1    
    69   35   37 1    
    70   35   97 1    
    71   36   98 1    
    72   36   99 1    
    73   36  100 1    
    74   37   38 am   BACKBONE|DICT|INTERRES
    75   37  101 1    
    76   38   39 2    
    77   38   40 1    
    78   40   41 1    
    79   40   42 1    
    80   40  102 1    
    81   41  103 1    
    82   41  104 1    
    83   41  105 1    
    84   42   43 am   BACKBONE|DICT|INTERRES
    85   42  106 1    
    86   43   44 2    
    87   43   45 1    
    88   45   46 1    
    89   45   49 1    
    90   45  107 1    
    91   46   47 1    
    92   46  108 1    
    93   46  109 1    
    94   47   48 1    
    95   48  110 1    
    96   48  111 1    
    97   49   50 am   BACKBONE|DICT|INTERRES
    98   49  112 1    
    99   50   51 2    
   100   50   52 1    
   101   52   53 1    
   102   52   54 1    
   103   52  113 1    
   104   53  114 1    
   105   53  115 1    
   106   53  116 1    
   107   54   55 am   BACKBONE|DICT|INTERRES
   108   54  117 1    
   109   55   56 2    
   110   55   57 1    
   111   57   58 1    
   112   57   59 1    
   113   57  118 1    
   114   58  119 1    
   115   58  120 1    
   116   58  121 1    
   117   59   60 am   BACKBONE|DICT|INTERRES
   118   59  122 1    
   119   60   61 2    
   120   60   62 1    
   121   62   63 1    
   122   62   64 1    
   123   62  123 1    
   124   63  124 1    
   125   63  125 1    
   126   63  126 1    
   127   64   65 am   BACKBONE|DICT|INTERRES
   128   64  127 1    
   129   65   66 2    
@<TRIPOS>SUBSTRUCTURE
     1 UNK         1 GROUP             0       ****    0 ROOT    
