@<TRIPOS>MOLECULE
3R134
127   129    1
SMALL
USER_CHARGES


@<TRIPOS>ATOM
      1 CA         36.2909  -48.2591  -53.8001 C.3       0 UNK        -0.1968 
      2 C          35.0306  -47.4309  -53.6033 C.2       0 UNK         0.4852 
      3 O          33.9311  -47.9327  -53.8584 O.2       0 UNK        -0.5359 
      4 N          35.1900  -46.1792  -53.1498 N.am      1 UNK        -0.4300 
      5 CA         34.1328  -45.1936  -52.8981 C.3       1 UNK         0.0863 
      6 C6         34.7066  -43.8573  -52.3613 C.3       11 UNK        -0.0953 
      7 S7         35.7611  -43.0150  -53.5873 S.3       11 UNK        -0.2369 
      8 C8         34.6042  -41.7812  -54.2675 C.3       11 UNK         0.0226 
      9 C9         33.3947  -42.4429  -54.9120 C.ar      11 UNK        -0.0699 
     10 C10        33.5372  -43.1288  -56.1204 C.ar      11 UNK        -0.0804 
     11 C11        32.4477  -43.7832  -56.6991 C.ar      11 UNK        -0.0871 
     12 C12        31.2012  -43.7157  -56.0674 C.ar      11 UNK        -0.1008 
     13 C13        31.0395  -43.0487  -54.8466 C.ar      11 UNK        -0.0735 
     14 C14        32.1454  -42.4037  -54.2841 C.ar      11 UNK        -0.0945 
     15 C15        29.7042  -43.0024  -54.0967 C.3       11 UNK         0.0169 
     16 S16        28.4790  -44.2739  -54.5795 S.3       11 UNK        -0.2669 
     17 C17        27.7663  -43.5334  -56.0929 C.3       11 UNK        -0.0850 
     18 CA         26.2177  -43.5817  -56.1146 C.3       10 UNK         0.0855 
     19 C          25.6674  -42.7088  -57.2834 C.2       10 UNK         0.5543 
     20 N          25.0831  -43.2746  -58.3337 N.am      10 UNK        -0.7343 
     21 O          25.7757  -41.4863  -57.2315 O.2       10 UNK        -0.5027 
     22 N          25.7404  -44.9721  -56.1099 N.am      10 UNK        -0.4495 
     23 C          24.4741  -45.3630  -55.9207 C.2       10 UNK         0.4903 
     24 O          23.5687  -44.6033  -55.5731 O.2       10 UNK        -0.4860 
     25 CA         24.1732  -46.8542  -56.1850 C.3       9 UNK         0.0227 
     26 CB         22.7016  -47.1002  -56.5788 C.3       9 UNK        -0.1964 
     27 N          25.0804  -47.4737  -57.1647 N.am      9 UNK        -0.4231 
     28 C          25.2888  -47.0929  -58.4381 C.2       9 UNK         0.5014 
     29 O          24.7006  -46.1485  -58.9674 O.2       9 UNK        -0.5270 
     30 CA         26.3650  -47.8366  -59.2533 C.3       8 UNK         0.0284 
     31 CB         27.4991  -46.8729  -59.6472 C.3       8 UNK        -0.1977 
     32 N          26.9390  -48.9786  -58.5376 N.am      8 UNK        -0.4342 
     33 C          26.3980  -50.2062  -58.5092 C.2       8 UNK         0.5039 
     34 O          25.3987  -50.5234  -59.1553 O.2       8 UNK        -0.5547 
     35 CA         27.0550  -51.2572  -57.5911 C.3       7 UNK         0.0281 
     36 CB         27.9855  -52.1719  -58.4037 C.3       7 UNK        -0.1963 
     37 N          27.8069  -50.6889  -56.4685 N.am      7 UNK        -0.4444 
     38 C          27.2977  -49.9051  -55.5066 C.2       7 UNK         0.5104 
     39 O          26.1043  -49.6182  -55.4206 O.2       7 UNK        -0.5100 
     40 CA         28.2935  -49.2827  -54.5103 C.3       6 UNK         0.0396 
     41 CB         28.3596  -50.1502  -53.2448 C.3       6 UNK        -0.1801 
     42 N          29.6482  -49.0902  -55.0485 N.am      6 UNK        -0.4747 
     43 C          29.9645  -48.4067  -56.1632 C.2       6 UNK         0.5012 
     44 O          29.1189  -47.8415  -56.8571 O.2       6 UNK        -0.5003 
     45 CA         31.4474  -48.3971  -56.6105 C.3       5 UNK         0.0782 
     46 C46        32.0504  -46.9713  -56.6417 C.3       11 UNK        -0.0868 
     47 S47        31.6093  -46.0568  -58.1587 S.3       11 UNK        -0.2515 
     48 C48        32.6448  -44.5588  -58.0015 C.3       11 UNK         0.0199 
     49 N          32.2855  -49.2915  -55.8075 N.am      5 UNK        -0.4607 
     50 C          32.3190  -50.6266  -55.9208 C.2       4 UNK         0.5031 
     51 O          31.6394  -51.2621  -56.7263 O.2       4 UNK        -0.5119 
     52 CA         33.2317  -51.3706  -54.9353 C.3       4 UNK         0.0263 
     53 CB         34.6774  -51.4007  -55.4559 C.3       4 UNK        -0.1967 
     54 N          33.1975  -50.7377  -53.6150 N.am      4 UNK        -0.4237 
     55 C          32.2506  -50.9633  -52.6954 C.2       3 UNK         0.4908 
     56 O          31.3526  -51.7940  -52.8252 O.2       3 UNK        -0.5102 
     57 CA         32.2809  -50.0769  -51.4473 C.3       3 UNK         0.0241 
     58 CB         33.6569  -50.0811  -50.7548 C.3       3 UNK        -0.1971 
     59 N          31.9159  -48.7108  -51.8203 N.am      3 UNK        -0.4139 
     60 C          30.9308  -47.9944  -51.2609 C.2       2 UNK         0.5016 
     61 O          30.2141  -48.4177  -50.3523 O.2       2 UNK        -0.5319 
     62 CA         30.6863  -46.5725  -51.8156 C.3       2 UNK         0.0286 
     63 CB         30.1228  -45.6136  -50.7453 C.3       2 UNK        -0.1963 
     64 N          31.8544  -45.9761  -52.4789 N.am      2 UNK        -0.4790 
     65 C          33.0603  -45.7404  -51.9390 C.2       1 UNK         0.5024 
     66 O          33.3550  -45.9619  -50.7630 O.2       1 UNK        -0.4888 
     67 H67        37.1751  -47.7523  -53.4140 H         1 UNK         0.0892 
     68 H68        36.4482  -48.4516  -54.8608 H         1 UNK         0.0892 
     69 H69        36.2015  -49.2159  -53.2872 H         1 UNK         0.0892 
     70 H70        36.1244  -45.8472  -52.9592 H         1 UNK         0.3107 
     71 H71        33.6547  -45.0029  -53.8601 H         1 UNK         0.0773 
     72 H72        35.3009  -44.0300  -51.4620 H         1 UNK         0.0680 
     73 H73        33.9061  -43.1784  -52.0612 H         1 UNK         0.0680 
     74 H74        34.2989  -41.0968  -53.4745 H         1 UNK         0.0650 
     75 H75        35.1264  -41.1770  -55.0107 H         1 UNK         0.0650 
     76 H76        34.5078  -43.1705  -56.5961 H         1 UNK         0.1397 
     77 H77        30.3658  -44.2179  -56.5264 H         1 UNK         0.1363 
     78 H78        32.0368  -41.8824  -53.3426 H         1 UNK         0.1355 
     79 H79        29.2658  -42.0092  -54.2013 H         1 UNK         0.0707 
     80 H80        29.9003  -43.1328  -53.0321 H         1 UNK         0.0707 
     81 H81        28.1636  -44.0575  -56.9639 H         1 UNK         0.1034 
     82 H82        28.1166  -42.5030  -56.1802 H         1 UNK         0.1034 
     83 H83        25.8553  -43.1157  -55.1963 H         1 UNK         0.0482 
     84 H84        24.9765  -44.2819  -58.4019 H         1 UNK         0.3460 
     85 H85        24.7339  -42.6875  -59.0739 H         1 UNK         0.3460 
     86 H86        26.4206  -45.6703  -56.3690 H         1 UNK         0.2989 
     87 H87        24.3524  -47.3689  -55.2402 H         1 UNK         0.0559 
     88 H88        22.0234  -46.7692  -55.7914 H         1 UNK         0.0848 
     89 H89        22.5078  -48.1597  -56.7457 H         1 UNK         0.0848 
     90 H90        22.4311  -46.5621  -57.4878 H         1 UNK         0.0848 
     91 H91        25.6017  -48.2689  -56.8082 H         1 UNK         0.3144 
     92 H92        25.8906  -48.1906  -60.1709 H         1 UNK         0.0727 
     93 H93        28.2736  -47.3820  -60.2210 H         1 UNK         0.0790 
     94 H94        27.9719  -46.4215  -58.7742 H         1 UNK         0.0790 
     95 H95        27.1220  -46.0581  -60.2668 H         1 UNK         0.0790 
     96 H96        27.7552  -48.7801  -57.9647 H         1 UNK         0.3215 
     97 H97        26.2515  -51.8669  -57.1724 H         1 UNK         0.0863 
     98 H98        28.3832  -52.9809  -57.7905 H         1 UNK         0.0808 
     99 H99        28.8296  -51.6210  -58.8211 H         1 UNK         0.0808 
    100 H100       27.4518  -52.6319  -59.2368 H         1 UNK         0.0808 
    101 H101       28.8020  -50.8651  -56.4544 H         1 UNK         0.3118 
    102 H102       27.9106  -48.2977  -54.2354 H         1 UNK         0.0546 
    103 H103       27.3692  -50.2740  -52.8043 H         1 UNK         0.0828 
    104 H104       28.9929  -49.7045  -52.4813 H         1 UNK         0.0828 
    105 H105       28.7458  -51.1475  -53.4588 H         1 UNK         0.0828 
    106 H106       30.3971  -49.5586  -54.5603 H         1 UNK         0.3005 
    107 H107       31.4557  -48.7886  -57.6307 H         1 UNK         0.1257 
    108 H108       33.1405  -47.0223  -56.6127 H         1 UNK         0.0775 
    109 H109       31.7570  -46.4046  -55.7573 H         1 UNK         0.0775 
    110 H110       33.6890  -44.8573  -58.1074 H         1 UNK         0.0840 
    111 H111       32.4270  -43.8946  -58.8387 H         1 UNK         0.0840 
    112 H112       32.8870  -48.8394  -55.1232 H         1 UNK         0.2987 
    113 H113       32.8767  -52.4004  -54.8524 H         1 UNK         0.0785 
    114 H114       35.0788  -50.3975  -55.6009 H         1 UNK         0.0798 
    115 H115       34.7326  -51.9142  -56.4168 H         1 UNK         0.0798 
    116 H116       35.3361  -51.9307  -54.7677 H         1 UNK         0.0798 
    117 H117       33.8503  -49.9802  -53.4600 H         1 UNK         0.3079 
    118 H118       31.5528  -50.4918  -50.7467 H         1 UNK         0.0794 
    119 H119       34.4297  -49.6088  -51.3611 H         1 UNK         0.0786 
    120 H120       33.9832  -51.0989  -50.5364 H         1 UNK         0.0786 
    121 H121       33.6143  -49.5451  -49.8064 H         1 UNK         0.0786 
    122 H122       32.4681  -48.2798  -52.5556 H         1 UNK         0.3032 
    123 H123       29.9229  -46.6852  -52.5880 H         1 UNK         0.1094 
    124 H124       29.1720  -45.9775  -50.3540 H         1 UNK         0.0794 
    125 H125       30.8023  -45.5072  -49.8992 H         1 UNK         0.0794 
    126 H126       29.9399  -44.6213  -51.1555 H         1 UNK         0.0794 
    127 H127       31.7281  -45.7583  -53.4577 H         1 UNK         0.3016 
@<TRIPOS>BOND
     1    1    2 1    
     2    1   67 1    
     3    1   68 1    
     4    1   69 1    
     5    2    3 2    
     6    2    4 am   BACKBONE|DICT|INTERRES
     7    4    5 1    
     8    4   70 1    
     9    5    6 1    
    10    5   65 1    
    11    5   71 1    
    12    6    7 1    
    13    6   72 1    
    14    6   73 1    
    15    7    8 1    
    16    8    9 1    
    17    8   74 1    
    18    8   75 1    
    19    9   10 ar   
    20    9   14 ar   
    21   10   11 ar   
    22   10   76 1    
    23   11   12 ar   
    24   11   48 1    
    25   12   13 ar   
    26   12   77 1    
    27   13   14 ar   
    28   13   15 1    
    29   14   78 1    
    30   15   16 1    
    31   15   79 1    
    32   15   80 1    
    33   16   17 1    
    34   17   18 1    
    35   17   81 1    
    36   17   82 1    
    37   18   19 1    
    38   18   22 1    
    39   18   83 1    
    40   19   20 am   BACKBONE|DICT|INTERRES
    41   19   21 2    
    42   20   84 1    
    43   20   85 1    
    44   22   23 am   BACKBONE|DICT|INTERRES
    45   22   86 1    
    46   23   24 2    
    47   23   25 1    
    48   25   26 1    
    49   25   27 1    
    50   25   87 1    
    51   26   88 1    
    52   26   89 1    
    53   26   90 1    
    54   27   28 am   BACKBONE|DICT|INTERRES
    55   27   91 1    
    56   28   29 2    
    57   28   30 1    
    58   30   31 1    
    59   30   32 1    
    60   30   92 1    
    61   31   93 1    
    62   31   94 1    
    63   31   95 1    
    64   32   33 am   BACKBONE|DICT|INTERRES
    65   32   96 1    
    66   33   34 2    
    67   33   35 1    
    68   35   36 1    
    69   35   37 1    
    70   35   97 1    
    71   36   98 1    
    72   36   99 1    
    73   36  100 1    
    74   37   38 am   BACKBONE|DICT|INTERRES
    75   37  101 1    
    76   38   39 2    
    77   38   40 1    
    78   40   41 1    
    79   40   42 1    
    80   40  102 1    
    81   41  103 1    
    82   41  104 1    
    83   41  105 1    
    84   42   43 am   BACKBONE|DICT|INTERRES
    85   42  106 1    
    86   43   44 2    
    87   43   45 1    
    88   45   46 1    
    89   45   49 1    
    90   45  107 1    
    91   46   47 1    
    92   46  108 1    
    93   46  109 1    
    94   47   48 1    
    95   48  110 1    
    96   48  111 1    
    97   49   50 am   BACKBONE|DICT|INTERRES
    98   49  112 1    
    99   50   51 2    
   100   50   52 1    
   101   52   53 1    
   102   52   54 1    
   103   52  113 1    
   104   53  114 1    
   105   53  115 1    
   106   53  116 1    
   107   54   55 am   BACKBONE|DICT|INTERRES
   108   54  117 1    
   109   55   56 2    
   110   55   57 1    
   111   57   58 1    
   112   57   59 1    
   113   57  118 1    
   114   58  119 1    
   115   58  120 1    
   116   58  121 1    
   117   59   60 am   BACKBONE|DICT|INTERRES
   118   59  122 1    
   119   60   61 2    
   120   60   62 1    
   121   62   63 1    
   122   62   64 1    
   123   62  123 1    
   124   63  124 1    
   125   63  125 1    
   126   63  126 1    
   127   64   65 am   BACKBONE|DICT|INTERRES
   128   64  127 1    
   129   65   66 2    
@<TRIPOS>SUBSTRUCTURE
     1 UNK         1 GROUP             0       ****    0 ROOT    
