@<TRIPOS>MOLECULE
3R134
127   129    1
SMALL
USER_CHARGES


@<TRIPOS>ATOM
      1 CA         36.8955  -43.3176  -55.6718 C.3       0 UNK        -0.1968 
      2 C          35.9447  -44.4093  -55.2045 C.2       0 UNK         0.4852 
      3 O          35.6568  -44.4938  -54.0099 O.2       0 UNK        -0.5359 
      4 N          35.4701  -45.2503  -56.1352 N.am      1 UNK        -0.4300 
      5 CA         34.5058  -46.3553  -55.9751 C.3       1 UNK         0.0863 
      6 C6         33.1247  -45.9283  -55.4113 C.3       11 UNK        -0.0953 
      7 S7         32.3515  -44.5584  -56.3386 S.3       11 UNK        -0.2369 
      8 C8         32.3041  -43.2390  -55.0811 C.3       11 UNK         0.0226 
      9 C9         31.2411  -43.5135  -54.0280 C.ar      11 UNK        -0.0699 
     10 C10        31.5825  -44.1079  -52.8108 C.ar      11 UNK        -0.0804 
     11 C11        30.5969  -44.4135  -51.8689 C.ar      11 UNK        -0.0871 
     12 C12        29.2611  -44.0996  -52.1416 C.ar      11 UNK        -0.1008 
     13 C13        28.9102  -43.4801  -53.3463 C.ar      11 UNK        -0.0735 
     14 C14        29.9082  -43.1826  -54.2795 C.ar      11 UNK        -0.0945 
     15 C15        27.4572  -43.1250  -53.6341 C.3       11 UNK         0.0169 
     16 S16        26.7364  -44.1979  -54.9184 S.3       11 UNK        -0.2669 
     17 C17        27.2756  -43.3706  -56.4573 C.3       11 UNK        -0.0850 
     18 CA         26.1732  -43.3497  -57.5464 C.3       10 UNK         0.0855 
     19 C          26.6489  -42.5220  -58.7726 C.2       10 UNK         0.5543 
     20 N          26.2237  -41.2708  -58.8800 N.am      10 UNK        -0.7343 
     21 O          27.4380  -42.9875  -59.5919 O.2       10 UNK        -0.5027 
     22 N          25.7677  -44.7174  -57.8938 N.am      10 UNK        -0.4495 
     23 C          24.8343  -45.0806  -58.7826 C.2       10 UNK         0.4903 
     24 O          24.1314  -44.2862  -59.4092 O.2       10 UNK        -0.4860 
     25 CA         24.6327  -46.5979  -58.9678 C.3       9 UNK         0.0227 
     26 CB         24.0418  -46.9695  -60.3450 C.3       9 UNK        -0.1964 
     27 N          25.8414  -47.3770  -58.6616 N.am      9 UNK        -0.4231 
     28 C          27.0008  -47.3964  -59.3422 C.2       9 UNK         0.5014 
     29 O          27.1791  -46.7961  -60.4026 O.2       9 UNK        -0.5270 
     30 CA         28.1840  -48.1865  -58.7399 C.3       8 UNK         0.0284 
     31 CB         29.3209  -47.2238  -58.3499 C.3       8 UNK        -0.1977 
     32 N          27.8399  -49.0044  -57.5725 N.am      8 UNK        -0.4342 
     33 C          27.0659  -50.0986  -57.5919 C.2       8 UNK         0.5039 
     34 O          26.6282  -50.6070  -58.6244 O.2       8 UNK        -0.5547 
     35 CA         26.6664  -50.6998  -56.2316 C.3       7 UNK         0.0281 
     36 CB         27.6544  -51.8005  -55.8169 C.3       7 UNK        -0.1963 
     37 N          26.5542  -49.7139  -55.1499 N.am      7 UNK        -0.4444 
     38 C          25.7341  -48.6544  -55.1241 C.2       7 UNK         0.5104 
     39 O          24.9628  -48.3742  -56.0413 O.2       7 UNK        -0.5100 
     40 CA         25.8065  -47.7198  -53.8997 C.3       6 UNK         0.0396 
     41 CB         24.8976  -48.2177  -52.7596 C.3       6 UNK        -0.1801 
     42 N          27.1753  -47.4369  -53.4366 N.am      6 UNK        -0.4747 
     43 C          28.0490  -48.2833  -52.8725 C.2       6 UNK         0.5012 
     44 O          27.7799  -49.4502  -52.5769 O.2       6 UNK        -0.5003 
     45 CA         29.4878  -47.7703  -52.6630 C.3       5 UNK         0.0782 
     46 C46        29.7569  -47.5626  -51.1531 C.3       11 UNK        -0.0868 
     47 S47        31.3979  -46.8458  -50.8170 S.3       11 UNK        -0.2515 
     48 C48        30.9871  -45.0895  -50.5632 C.3       11 UNK         0.0199 
     49 N          30.4503  -48.6907  -53.2838 N.am      5 UNK        -0.4607 
     50 C          30.4557  -49.0387  -54.5780 C.2       4 UNK         0.5031 
     51 O          29.6899  -48.5412  -55.4055 O.2       4 UNK        -0.5119 
     52 CA         31.4438  -50.1302  -55.0402 C.3       4 UNK         0.0263 
     53 CB         31.8785  -49.9235  -56.5031 C.3       4 UNK        -0.1967 
     54 N          32.6330  -50.2895  -54.1936 N.am      4 UNK        -0.4237 
     55 C          32.6693  -50.9961  -53.0526 C.2       3 UNK         0.4908 
     56 O          31.6655  -51.4840  -52.5333 O.2       3 UNK        -0.5102 
     57 CA         34.0328  -51.2282  -52.3735 C.3       3 UNK         0.0241 
     58 CB         34.4814  -52.6872  -52.5629 C.3       3 UNK        -0.1971 
     59 N          35.0921  -50.3437  -52.8597 N.am      3 UNK        -0.4139 
     60 C          35.2546  -49.0714  -52.4778 C.2       2 UNK         0.5016 
     61 O          34.5463  -48.5129  -51.6404 O.2       2 UNK        -0.5319 
     62 CA         36.3788  -48.2697  -53.1590 C.3       2 UNK         0.0286 
     63 CB         37.4691  -49.1397  -53.8264 C.3       2 UNK        -0.1963 
     64 N          35.8237  -47.3061  -54.1137 N.am      2 UNK        -0.4790 
     65 C          35.0508  -47.5614  -55.1785 C.2       1 UNK         0.5024 
     66 O          34.7511  -48.7004  -55.5394 O.2       1 UNK        -0.4888 
     67 H67        37.8577  -43.4183  -55.1704 H         1 UNK         0.0892 
     68 H68        37.0671  -43.3570  -56.7473 H         1 UNK         0.0892 
     69 H69        36.4858  -42.3373  -55.4300 H         1 UNK         0.0892 
     70 H70        35.7865  -45.1233  -57.0866 H         1 UNK         0.3107 
     71 H71        34.3349  -46.7249  -56.9877 H         1 UNK         0.0773 
     72 H72        32.4272  -46.7671  -55.4390 H         1 UNK         0.0680 
     73 H73        33.2194  -45.6607  -54.3602 H         1 UNK         0.0680 
     74 H74        32.0928  -42.2900  -55.5759 H         1 UNK         0.0650 
     75 H75        33.2858  -43.1293  -54.6194 H         1 UNK         0.0650 
     76 H76        32.6146  -44.3543  -52.6006 H         1 UNK         0.1397 
     77 H77        28.4954  -44.3345  -51.4147 H         1 UNK         0.1363 
     78 H78        29.6525  -42.7064  -55.2142 H         1 UNK         0.1355 
     79 H79        26.8583  -43.2309  -52.7283 H         1 UNK         0.0707 
     80 H80        27.3777  -42.0762  -53.9228 H         1 UNK         0.0707 
     81 H81        27.5746  -42.3470  -56.2252 H         1 UNK         0.1034 
     82 H82        28.1716  -43.8744  -56.8265 H         1 UNK         0.1034 
     83 H83        25.2912  -42.8605  -57.1283 H         1 UNK         0.0482 
     84 H84        25.5838  -40.8772  -58.2075 H         1 UNK         0.3460 
     85 H85        26.5360  -40.7124  -59.6591 H         1 UNK         0.3460 
     86 H86        26.2767  -45.4495  -57.4239 H         1 UNK         0.2989 
     87 H87        23.8994  -46.8908  -58.2152 H         1 UNK         0.0559 
     88 H88        24.6679  -46.6186  -61.1656 H         1 UNK         0.0848 
     89 H89        23.9236  -48.0481  -60.4487 H         1 UNK         0.0848 
     90 H90        23.0562  -46.5223  -60.4793 H         1 UNK         0.0848 
     91 H91        25.7847  -47.9094  -57.7981 H         1 UNK         0.3144 
     92 H92        28.5535  -48.8540  -59.5209 H         1 UNK         0.0727 
     93 H93        30.2100  -47.7666  -58.0297 H         1 UNK         0.0790 
     94 H94        29.0266  -46.5592  -57.5364 H         1 UNK         0.0790 
     95 H95        29.6164  -46.5968  -59.1922 H         1 UNK         0.0790 
     96 H96        28.2449  -48.7150  -56.6845 H         1 UNK         0.3215 
     97 H97        25.6812  -51.1540  -56.3563 H         1 UNK         0.0863 
     98 H98        27.3420  -52.2900  -54.8943 H         1 UNK         0.0808 
     99 H99        28.6561  -51.4014  -55.6636 H         1 UNK         0.0808 
    100 H100       27.7247  -52.5718  -56.5852 H         1 UNK         0.0808 
    101 H101       27.1412  -49.8524  -54.3318 H         1 UNK         0.3118 
    102 H102       25.4061  -46.7591  -54.2250 H         1 UNK         0.0546 
    103 H103       23.8629  -48.2920  -53.0965 H         1 UNK         0.0828 
    104 H104       24.9133  -47.5325  -51.9122 H         1 UNK         0.0828 
    105 H105       25.1878  -49.2048  -52.3994 H         1 UNK         0.0828 
    106 H106       27.5046  -46.5102  -53.6755 H         1 UNK         0.3005 
    107 H107       29.5934  -46.8111  -53.1744 H         1 UNK         0.1257 
    108 H108       29.6939  -48.5143  -50.6214 H         1 UNK         0.0775 
    109 H109       28.9932  -46.9212  -50.7090 H         1 UNK         0.0775 
    110 H110       30.1946  -44.9973  -49.8189 H         1 UNK         0.0840 
    111 H111       31.8571  -44.5830  -50.1425 H         1 UNK         0.0840 
    112 H112       31.0790  -49.1693  -52.6551 H         1 UNK         0.2987 
    113 H113       30.8911  -51.0706  -55.0062 H         1 UNK         0.0785 
    114 H114       31.0245  -49.9950  -57.1781 H         1 UNK         0.0798 
    115 H115       32.5984  -50.6791  -56.8176 H         1 UNK         0.0798 
    116 H116       32.3305  -48.9436  -56.6563 H         1 UNK         0.0798 
    117 H117       33.4904  -49.8748  -54.5471 H         1 UNK         0.3079 
    118 H118       33.8951  -51.0528  -51.3041 H         1 UNK         0.0794 
    119 H119       33.7326  -53.3803  -52.1765 H         1 UNK         0.0786 
    120 H120       35.4109  -52.8892  -52.0301 H         1 UNK         0.0786 
    121 H121       34.6367  -52.9293  -53.6151 H         1 UNK         0.0786 
    122 H122       35.7034  -50.7101  -53.5754 H         1 UNK         0.3032 
    123 H123       36.8582  -47.6886  -52.3691 H         1 UNK         0.1094 
    124 H124       38.2888  -48.5198  -54.1899 H         1 UNK         0.0794 
    125 H125       37.8979  -49.8466  -53.1146 H         1 UNK         0.0794 
    126 H126       37.0931  -49.7102  -54.6761 H         1 UNK         0.0794 
    127 H127       35.9376  -46.3226  -53.8740 H         1 UNK         0.3016 
@<TRIPOS>BOND
     1    1    2 1    
     2    1   67 1    
     3    1   68 1    
     4    1   69 1    
     5    2    3 2    
     6    2    4 am   BACKBONE|DICT|INTERRES
     7    4    5 1    
     8    4   70 1    
     9    5    6 1    
    10    5   65 1    
    11    5   71 1    
    12    6    7 1    
    13    6   72 1    
    14    6   73 1    
    15    7    8 1    
    16    8    9 1    
    17    8   74 1    
    18    8   75 1    
    19    9   10 ar   
    20    9   14 ar   
    21   10   11 ar   
    22   10   76 1    
    23   11   12 ar   
    24   11   48 1    
    25   12   13 ar   
    26   12   77 1    
    27   13   14 ar   
    28   13   15 1    
    29   14   78 1    
    30   15   16 1    
    31   15   79 1    
    32   15   80 1    
    33   16   17 1    
    34   17   18 1    
    35   17   81 1    
    36   17   82 1    
    37   18   19 1    
    38   18   22 1    
    39   18   83 1    
    40   19   20 am   BACKBONE|DICT|INTERRES
    41   19   21 2    
    42   20   84 1    
    43   20   85 1    
    44   22   23 am   BACKBONE|DICT|INTERRES
    45   22   86 1    
    46   23   24 2    
    47   23   25 1    
    48   25   26 1    
    49   25   27 1    
    50   25   87 1    
    51   26   88 1    
    52   26   89 1    
    53   26   90 1    
    54   27   28 am   BACKBONE|DICT|INTERRES
    55   27   91 1    
    56   28   29 2    
    57   28   30 1    
    58   30   31 1    
    59   30   32 1    
    60   30   92 1    
    61   31   93 1    
    62   31   94 1    
    63   31   95 1    
    64   32   33 am   BACKBONE|DICT|INTERRES
    65   32   96 1    
    66   33   34 2    
    67   33   35 1    
    68   35   36 1    
    69   35   37 1    
    70   35   97 1    
    71   36   98 1    
    72   36   99 1    
    73   36  100 1    
    74   37   38 am   BACKBONE|DICT|INTERRES
    75   37  101 1    
    76   38   39 2    
    77   38   40 1    
    78   40   41 1    
    79   40   42 1    
    80   40  102 1    
    81   41  103 1    
    82   41  104 1    
    83   41  105 1    
    84   42   43 am   BACKBONE|DICT|INTERRES
    85   42  106 1    
    86   43   44 2    
    87   43   45 1    
    88   45   46 1    
    89   45   49 1    
    90   45  107 1    
    91   46   47 1    
    92   46  108 1    
    93   46  109 1    
    94   47   48 1    
    95   48  110 1    
    96   48  111 1    
    97   49   50 am   BACKBONE|DICT|INTERRES
    98   49  112 1    
    99   50   51 2    
   100   50   52 1    
   101   52   53 1    
   102   52   54 1    
   103   52  113 1    
   104   53  114 1    
   105   53  115 1    
   106   53  116 1    
   107   54   55 am   BACKBONE|DICT|INTERRES
   108   54  117 1    
   109   55   56 2    
   110   55   57 1    
   111   57   58 1    
   112   57   59 1    
   113   57  118 1    
   114   58  119 1    
   115   58  120 1    
   116   58  121 1    
   117   59   60 am   BACKBONE|DICT|INTERRES
   118   59  122 1    
   119   60   61 2    
   120   60   62 1    
   121   62   63 1    
   122   62   64 1    
   123   62  123 1    
   124   63  124 1    
   125   63  125 1    
   126   63  126 1    
   127   64   65 am   BACKBONE|DICT|INTERRES
   128   64  127 1    
   129   65   66 2    
@<TRIPOS>SUBSTRUCTURE
     1 UNK         1 GROUP             0       ****    0 ROOT    
