@<TRIPOS>MOLECULE
3R134
127   129    1
SMALL
USER_CHARGES


@<TRIPOS>ATOM
      1 CA         34.3156  -43.6500  -49.3719 C.3       0 UNK        -0.1968 
      2 C          35.1794  -44.1758  -50.5089 C.2       0 UNK         0.4852 
      3 O          36.1668  -43.5357  -50.8739 O.2       0 UNK        -0.5359 
      4 N          34.8140  -45.3317  -51.0703 N.am      1 UNK        -0.4300 
      5 CA         35.5069  -46.0041  -52.1666 C.3       1 UNK         0.0863 
      6 C6         35.2239  -45.3600  -53.5524 C.3       11 UNK        -0.0953 
      7 S7         33.4594  -45.3129  -54.0343 S.3       11 UNK        -0.2369 
      8 C8         33.0651  -43.5719  -53.6912 C.3       11 UNK         0.0226 
      9 C9         31.6521  -43.2362  -54.1345 C.ar      11 UNK        -0.0699 
     10 C10        30.5808  -43.3753  -53.2488 C.ar      11 UNK        -0.0804 
     11 C11        29.2788  -43.0868  -53.6667 C.ar      11 UNK        -0.0871 
     12 C12        29.0609  -42.6169  -54.9659 C.ar      11 UNK        -0.1008 
     13 C13        30.1259  -42.4663  -55.8657 C.ar      11 UNK        -0.0735 
     14 C14        31.4172  -42.7873  -55.4367 C.ar      11 UNK        -0.0945 
     15 C15        29.9550  -41.9578  -57.3008 C.3       11 UNK         0.0169 
     16 S16        28.2851  -41.3661  -57.7509 S.3       11 UNK        -0.2669 
     17 C17        27.5821  -42.7997  -58.6398 C.3       11 UNK        -0.0850 
     18 CA         26.9571  -43.8964  -57.7273 C.3       10 UNK         0.0855 
     19 C          25.5697  -43.5117  -57.1203 C.2       10 UNK         0.5543 
     20 N          24.5886  -44.4060  -57.0666 N.am      10 UNK        -0.7343 
     21 O          25.3811  -42.3940  -56.6491 O.2       10 UNK        -0.5027 
     22 N          26.9971  -45.2283  -58.3488 N.am      10 UNK        -0.4495 
     23 C          26.4184  -45.5814  -59.5051 C.2       10 UNK         0.4903 
     24 O          25.8706  -44.7916  -60.2744 O.2       10 UNK        -0.4860 
     25 CA         26.4154  -47.0807  -59.8498 C.3       9 UNK         0.0227 
     26 CB         27.6307  -47.4310  -60.7206 C.3       9 UNK        -0.1964 
     27 N          26.3667  -47.9495  -58.6655 N.am      9 UNK        -0.4231 
     28 C          25.3264  -48.0011  -57.8164 C.2       9 UNK         0.5014 
     29 O          24.3142  -47.3128  -57.9628 O.2       9 UNK        -0.5270 
     30 CA         25.4107  -48.9112  -56.5744 C.3       8 UNK         0.0284 
     31 CB         24.1316  -49.7535  -56.3845 C.3       8 UNK        -0.1977 
     32 N          26.6114  -49.7459  -56.4829 N.am      8 UNK        -0.4342 
     33 C          26.9831  -50.7701  -57.2620 C.2       8 UNK         0.5039 
     34 O          26.3223  -51.1915  -58.2131 O.2       8 UNK        -0.5547 
     35 CA         28.3574  -51.3880  -56.9311 C.3       7 UNK         0.0281 
     36 CB         28.7994  -52.4593  -57.9502 C.3       7 UNK        -0.1963 
     37 N          29.4023  -50.3672  -56.7702 N.am      7 UNK        -0.4444 
     38 C          29.7538  -49.4269  -57.6603 C.2       7 UNK         0.5104 
     39 O          29.2577  -49.3243  -58.7819 O.2       7 UNK        -0.5100 
     40 CA         30.8031  -48.4039  -57.1846 C.3       6 UNK         0.0396 
     41 CB         31.1184  -47.3206  -58.2383 C.3       6 UNK        -0.1801 
     42 N          30.4248  -47.7874  -55.9087 N.am      6 UNK        -0.4747 
     43 C          29.3145  -47.0786  -55.6459 C.2       6 UNK         0.5012 
     44 O          28.4479  -46.8140  -56.4819 O.2       6 UNK        -0.5003 
     45 CA         29.1436  -46.6401  -54.1759 C.3       5 UNK         0.0782 
     46 C46        27.8189  -45.8696  -53.9132 C.3       11 UNK        -0.0868 
     47 S47        27.8514  -45.0505  -52.2816 S.3       11 UNK        -0.2515 
     48 C48        28.0993  -43.2957  -52.7240 C.3       11 UNK         0.0199 
     49 N          29.3485  -47.7707  -53.2545 N.am      5 UNK        -0.4607 
     50 C          28.6352  -48.9067  -53.2327 C.2       4 UNK         0.5031 
     51 O          27.6952  -49.1370  -53.9933 O.2       4 UNK        -0.5119 
     52 CA         29.0780  -49.9822  -52.2204 C.3       4 UNK         0.0263 
     53 CB         28.3451  -51.3257  -52.4272 C.3       4 UNK        -0.1967 
     54 N          30.5315  -50.2003  -52.1982 N.am      4 UNK        -0.4237 
     55 C          31.3155  -50.5073  -53.2420 C.2       3 UNK         0.4908 
     56 O          30.9208  -50.6107  -54.4070 O.2       3 UNK        -0.5102 
     57 CA         32.7960  -50.7392  -52.9304 C.3       3 UNK         0.0241 
     58 CB         33.0565  -52.2014  -52.5281 C.3       3 UNK        -0.1971 
     59 N          33.5608  -50.4082  -54.1293 N.am      3 UNK        -0.4139 
     60 C          34.8022  -49.9195  -54.2308 C.2       2 UNK         0.5016 
     61 O          35.2676  -49.5831  -55.3201 O.2       2 UNK        -0.5319 
     62 CA         35.6899  -49.7540  -52.9797 C.3       2 UNK         0.0286 
     63 CB         37.0257  -50.4981  -53.1526 C.3       2 UNK        -0.1963 
     64 N          35.9581  -48.3312  -52.7758 N.am      2 UNK        -0.4790 
     65 C          35.1399  -47.4963  -52.1238 C.2       1 UNK         0.5024 
     66 O          34.1280  -47.8589  -51.5165 O.2       1 UNK        -0.4888 
     67 H67        34.9092  -43.5523  -48.4634 H         1 UNK         0.0892 
     68 H68        33.9174  -42.6683  -49.6271 H         1 UNK         0.0892 
     69 H69        33.4755  -44.3110  -49.1591 H         1 UNK         0.0892 
     70 H70        34.0217  -45.8571  -50.7202 H         1 UNK         0.3107 
     71 H71        36.5795  -45.9411  -51.9699 H         1 UNK         0.0773 
     72 H72        35.6289  -44.3473  -53.5715 H         1 UNK         0.0680 
     73 H73        35.7666  -45.8953  -54.3333 H         1 UNK         0.0680 
     74 H74        33.1811  -43.3739  -52.6252 H         1 UNK         0.0650 
     75 H75        33.7788  -42.9269  -54.2063 H         1 UNK         0.0650 
     76 H76        30.7550  -43.7343  -52.2434 H         1 UNK         0.1397 
     77 H77        28.0515  -42.3776  -55.2667 H         1 UNK         0.1363 
     78 H78        32.2490  -42.6826  -56.1203 H         1 UNK         0.1355 
     79 H79        30.2714  -42.7377  -57.9945 H         1 UNK         0.0707 
     80 H80        30.6431  -41.1243  -57.4495 H         1 UNK         0.0707 
     81 H81        28.3722  -43.2294  -59.2572 H         1 UNK         0.1034 
     82 H82        26.8374  -42.4305  -59.3470 H         1 UNK         0.1034 
     83 H83        27.6129  -44.0137  -56.8672 H         1 UNK         0.0482 
     84 H84        24.6985  -45.3360  -57.4523 H         1 UNK         0.3460 
     85 H85        23.7077  -44.1381  -56.6580 H         1 UNK         0.3460 
     86 H86        27.4322  -45.9511  -57.7782 H         1 UNK         0.2989 
     87 H87        25.5162  -47.2812  -60.4361 H         1 UNK         0.0559 
     88 H88        27.6410  -48.4884  -60.9857 H         1 UNK         0.0848 
     89 H89        27.6186  -46.8627  -61.6516 H         1 UNK         0.0848 
     90 H90        28.5685  -47.2017  -60.2147 H         1 UNK         0.0848 
     91 H91        27.1837  -48.5202  -58.4800 H         1 UNK         0.3144 
     92 H92        25.4782  -48.2300  -55.7247 H         1 UNK         0.0727 
     93 H93        24.1862  -50.3584  -55.4795 H         1 UNK         0.0790 
     94 H94        23.9574  -50.4227  -57.2275 H         1 UNK         0.0790 
     95 H95        23.2519  -49.1154  -56.2922 H         1 UNK         0.0790 
     96 H96        27.2173  -49.5036  -55.6978 H         1 UNK         0.3215 
     97 H97        28.2502  -51.8762  -55.9613 H         1 UNK         0.0863 
     98 H98        29.7566  -52.8998  -57.6716 H         1 UNK         0.0808 
     99 H99        28.8993  -52.0461  -58.9545 H         1 UNK         0.0808 
    100 H100       28.0723  -53.2704  -58.0034 H         1 UNK         0.0808 
    101 H101       29.8848  -50.3715  -55.8711 H         1 UNK         0.3118 
    102 H102       31.7206  -48.9648  -57.0009 H         1 UNK         0.0546 
    103 H103       30.2428  -46.7172  -58.4784 H         1 UNK         0.0828 
    104 H104       31.4671  -47.7708  -59.1684 H         1 UNK         0.0828 
    105 H105       31.9015  -46.6473  -57.8902 H         1 UNK         0.0828 
    106 H106       31.0406  -47.9911  -55.1343 H         1 UNK         0.3005 
    107 H107       29.9679  -45.9481  -54.0014 H         1 UNK         0.1257 
    108 H108       27.6378  -45.1166  -54.6808 H         1 UNK         0.0775 
    109 H109       26.9611  -46.5424  -53.9537 H         1 UNK         0.0775 
    110 H110       27.1773  -42.9135  -53.1654 H         1 UNK         0.0840 
    111 H111       28.2617  -42.7195  -51.8121 H         1 UNK         0.0840 
    112 H112       30.1057  -47.6692  -52.5941 H         1 UNK         0.2987 
    113 H113       28.8016  -49.6028  -51.2355 H         1 UNK         0.0785 
    114 H114       28.6364  -52.0564  -51.6729 H         1 UNK         0.0798 
    115 H115       28.5562  -51.7547  -53.4072 H         1 UNK         0.0798 
    116 H116       27.2642  -51.1993  -52.3529 H         1 UNK         0.0798 
    117 H117       30.9642  -50.1233  -51.2875 H         1 UNK         0.3079 
    118 H118       33.0575  -50.0750  -52.1083 H         1 UNK         0.0794 
    119 H119       32.4851  -52.4716  -51.6391 H         1 UNK         0.0786 
    120 H120       34.1080  -52.3765  -52.3010 H         1 UNK         0.0786 
    121 H121       32.7692  -52.8920  -53.3222 H         1 UNK         0.0786 
    122 H122       33.0033  -50.4809  -54.9708 H         1 UNK         0.3032 
    123 H123       35.2150  -50.1663  -52.0902 H         1 UNK         0.1094 
    124 H124       36.8576  -51.5650  -53.3058 H         1 UNK         0.0794 
    125 H125       37.5920  -50.1313  -54.0098 H         1 UNK         0.0794 
    126 H126       37.6543  -50.3939  -52.2680 H         1 UNK         0.0794 
    127 H127       36.7437  -47.9495  -53.2840 H         1 UNK         0.3016 
@<TRIPOS>BOND
     1    1    2 1    
     2    1   67 1    
     3    1   68 1    
     4    1   69 1    
     5    2    3 2    
     6    2    4 am   BACKBONE|DICT|INTERRES
     7    4    5 1    
     8    4   70 1    
     9    5    6 1    
    10    5   65 1    
    11    5   71 1    
    12    6    7 1    
    13    6   72 1    
    14    6   73 1    
    15    7    8 1    
    16    8    9 1    
    17    8   74 1    
    18    8   75 1    
    19    9   10 ar   
    20    9   14 ar   
    21   10   11 ar   
    22   10   76 1    
    23   11   12 ar   
    24   11   48 1    
    25   12   13 ar   
    26   12   77 1    
    27   13   14 ar   
    28   13   15 1    
    29   14   78 1    
    30   15   16 1    
    31   15   79 1    
    32   15   80 1    
    33   16   17 1    
    34   17   18 1    
    35   17   81 1    
    36   17   82 1    
    37   18   19 1    
    38   18   22 1    
    39   18   83 1    
    40   19   20 am   BACKBONE|DICT|INTERRES
    41   19   21 2    
    42   20   84 1    
    43   20   85 1    
    44   22   23 am   BACKBONE|DICT|INTERRES
    45   22   86 1    
    46   23   24 2    
    47   23   25 1    
    48   25   26 1    
    49   25   27 1    
    50   25   87 1    
    51   26   88 1    
    52   26   89 1    
    53   26   90 1    
    54   27   28 am   BACKBONE|DICT|INTERRES
    55   27   91 1    
    56   28   29 2    
    57   28   30 1    
    58   30   31 1    
    59   30   32 1    
    60   30   92 1    
    61   31   93 1    
    62   31   94 1    
    63   31   95 1    
    64   32   33 am   BACKBONE|DICT|INTERRES
    65   32   96 1    
    66   33   34 2    
    67   33   35 1    
    68   35   36 1    
    69   35   37 1    
    70   35   97 1    
    71   36   98 1    
    72   36   99 1    
    73   36  100 1    
    74   37   38 am   BACKBONE|DICT|INTERRES
    75   37  101 1    
    76   38   39 2    
    77   38   40 1    
    78   40   41 1    
    79   40   42 1    
    80   40  102 1    
    81   41  103 1    
    82   41  104 1    
    83   41  105 1    
    84   42   43 am   BACKBONE|DICT|INTERRES
    85   42  106 1    
    86   43   44 2    
    87   43   45 1    
    88   45   46 1    
    89   45   49 1    
    90   45  107 1    
    91   46   47 1    
    92   46  108 1    
    93   46  109 1    
    94   47   48 1    
    95   48  110 1    
    96   48  111 1    
    97   49   50 am   BACKBONE|DICT|INTERRES
    98   49  112 1    
    99   50   51 2    
   100   50   52 1    
   101   52   53 1    
   102   52   54 1    
   103   52  113 1    
   104   53  114 1    
   105   53  115 1    
   106   53  116 1    
   107   54   55 am   BACKBONE|DICT|INTERRES
   108   54  117 1    
   109   55   56 2    
   110   55   57 1    
   111   57   58 1    
   112   57   59 1    
   113   57  118 1    
   114   58  119 1    
   115   58  120 1    
   116   58  121 1    
   117   59   60 am   BACKBONE|DICT|INTERRES
   118   59  122 1    
   119   60   61 2    
   120   60   62 1    
   121   62   63 1    
   122   62   64 1    
   123   62  123 1    
   124   63  124 1    
   125   63  125 1    
   126   63  126 1    
   127   64   65 am   BACKBONE|DICT|INTERRES
   128   64  127 1    
   129   65   66 2    
@<TRIPOS>SUBSTRUCTURE
     1 UNK         1 GROUP             0       ****    0 ROOT    
