@<TRIPOS>MOLECULE
3R134
127   129    1
SMALL
USER_CHARGES


@<TRIPOS>ATOM
      1 CA         36.1335  -48.1402  -54.2609 C.3       0 UNK        -0.1968 
      2 C          34.9220  -47.3280  -53.8304 C.2       0 UNK         0.4852 
      3 O          33.7932  -47.8060  -53.9752 O.2       0 UNK        -0.5359 
      4 N          35.1537  -46.1134  -53.3093 N.am      1 UNK        -0.4300 
      5 CA         34.1413  -45.1467  -52.8695 C.3       1 UNK         0.0863 
      6 C6         34.7703  -43.8340  -52.3336 C.3       11 UNK        -0.0953 
      7 S7         35.7084  -42.9239  -53.6046 S.3       11 UNK        -0.2369 
      8 C8         34.4563  -41.7323  -54.1864 C.3       11 UNK         0.0226 
      9 C9         33.2765  -42.4448  -54.8299 C.ar      11 UNK        -0.0699 
     10 C10        33.4430  -43.0861  -56.0590 C.ar      11 UNK        -0.0804 
     11 C11        32.3978  -43.8138  -56.6299 C.ar      11 UNK        -0.0871 
     12 C12        31.1654  -43.8636  -55.9685 C.ar      11 UNK        -0.1008 
     13 C13        30.9766  -43.2319  -54.7317 C.ar      11 UNK        -0.0735 
     14 C14        32.0411  -42.5136  -54.1772 C.ar      11 UNK        -0.0945 
     15 C15        29.6609  -43.3057  -53.9477 C.3       11 UNK         0.0169 
     16 S16        28.4325  -44.5213  -54.5503 S.3       11 UNK        -0.2669 
     17 C17        27.7764  -43.6681  -56.0299 C.3       11 UNK        -0.0850 
     18 CA         26.2280  -43.6514  -56.0860 C.3       10 UNK         0.0855 
     19 C          25.7431  -42.7359  -57.2510 C.2       10 UNK         0.5543 
     20 N          25.1687  -43.2606  -58.3281 N.am      10 UNK        -0.7343 
     21 O          25.8943  -41.5194  -57.1714 O.2       10 UNK        -0.5027 
     22 N          25.6928  -45.0195  -56.1201 N.am      10 UNK        -0.4495 
     23 C          24.4068  -45.3607  -55.9736 C.2       10 UNK         0.4903 
     24 O          23.5226  -44.5700  -55.6406 O.2       10 UNK        -0.4860 
     25 CA         24.0549  -46.8344  -56.2679 C.3       9 UNK         0.0227 
     26 CB         22.5908  -47.0152  -56.7210 C.3       9 UNK        -0.1964 
     27 N          24.9763  -47.4783  -57.2180 N.am      9 UNK        -0.4231 
     28 C          25.2371  -47.1040  -58.4837 C.2       9 UNK         0.5014 
     29 O          24.6934  -46.1423  -59.0295 O.2       9 UNK        -0.5270 
     30 CA         26.3184  -47.8781  -59.2654 C.3       8 UNK         0.0284 
     31 CB         27.4518  -46.9300  -59.6974 C.3       8 UNK        -0.1977 
     32 N          26.8956  -48.9890  -58.5042 N.am      8 UNK        -0.4342 
     33 C          26.3545  -50.2138  -58.4128 C.2       8 UNK         0.5039 
     34 O          25.3533  -50.5625  -59.0390 O.2       8 UNK        -0.5547 
     35 CA         27.0104  -51.2146  -57.4385 C.3       7 UNK         0.0281 
     36 CB         27.9353  -52.1774  -58.2002 C.3       7 UNK        -0.1963 
     37 N          27.7691  -50.5828  -56.3550 N.am      7 UNK        -0.4444 
     38 C          27.2689  -49.7343  -55.4446 C.2       7 UNK         0.5104 
     39 O          26.0730  -49.4584  -55.3570 O.2       7 UNK        -0.5100 
     40 CA         28.2737  -49.0166  -54.5241 C.3       6 UNK         0.0396 
     41 CB         28.2583  -49.6646  -53.1329 C.3       6 UNK        -0.1801 
     42 N          29.6466  -48.9690  -55.0548 N.am      6 UNK        -0.4747 
     43 C          29.9932  -48.3618  -56.2056 C.2       6 UNK         0.5012 
     44 O          29.1659  -47.8031  -56.9271 O.2       6 UNK        -0.5003 
     45 CA         31.4690  -48.4312  -56.6689 C.3       5 UNK         0.0782 
     46 C46        32.1468  -47.0399  -56.7124 C.3       11 UNK        -0.0868 
     47 S47        31.6675  -46.0701  -58.1836 S.3       11 UNK        -0.2515 
     48 C48        32.6369  -44.5386  -57.9549 C.3       11 UNK         0.0199 
     49 N          32.2681  -49.3710  -55.8794 N.am      5 UNK        -0.4607 
     50 C          32.2667  -50.6997  -56.0510 C.2       4 UNK         0.5031 
     51 O          31.5779  -51.2768  -56.8925 O.2       4 UNK        -0.5119 
     52 CA         33.1621  -51.5255  -55.1089 C.3       4 UNK         0.0263 
     53 CB         34.5712  -51.6767  -55.7038 C.3       4 UNK        -0.1967 
     54 N          33.2612  -50.9615  -53.7587 N.am      4 UNK        -0.4237 
     55 C          32.2276  -50.8221  -52.9180 C.2       3 UNK         0.4908 
     56 O          31.0837  -51.1863  -53.1853 O.2       3 UNK        -0.5102 
     57 CA         32.4851  -50.1126  -51.5855 C.3       3 UNK         0.0241 
     58 CB         33.9509  -50.1738  -51.1099 C.3       3 UNK        -0.1971 
     59 N          32.0886  -48.7203  -51.7617 N.am      3 UNK        -0.4139 
     60 C          31.1700  -48.0670  -51.0390 C.2       2 UNK         0.5016 
     61 O          30.5642  -48.5692  -50.0906 O.2       2 UNK        -0.5319 
     62 CA         30.8546  -46.6130  -51.4590 C.3       2 UNK         0.0286 
     63 CB         30.4257  -45.7309  -50.2675 C.3       2 UNK        -0.1963 
     64 N          31.9304  -45.9650  -52.2225 N.am      2 UNK        -0.4790 
     65 C          33.1920  -45.7489  -51.8188 C.2       1 UNK         0.5024 
     66 O          33.6249  -46.0261  -50.6986 O.2       1 UNK        -0.4888 
     67 H67        37.0663  -47.6042  -54.0871 H         1 UNK         0.0892 
     68 H68        36.0687  -48.3687  -55.3241 H         1 UNK         0.0892 
     69 H69        36.1757  -49.0792  -53.7109 H         1 UNK         0.0892 
     70 H70        36.1075  -45.7961  -53.2140 H         1 UNK         0.3107 
     71 H71        33.5490  -44.9120  -53.7540 H         1 UNK         0.0773 
     72 H72        35.4466  -44.0469  -51.5035 H         1 UNK         0.0680 
     73 H73        34.0024  -43.1715  -51.9291 H         1 UNK         0.0680 
     74 H74        34.1315  -41.1083  -53.3523 H         1 UNK         0.0650 
     75 H75        34.9151  -41.0610  -54.9136 H         1 UNK         0.0650 
     76 H76        34.4039  -43.0428  -56.5541 H         1 UNK         0.1397 
     77 H77        30.3654  -44.4283  -56.4182 H         1 UNK         0.1363 
     78 H78        31.9150  -42.0267  -53.2196 H         1 UNK         0.1355 
     79 H79        29.2042  -42.3156  -53.9173 H         1 UNK         0.0707 
     80 H80        29.8909  -43.5651  -52.9133 H         1 UNK         0.0707 
     81 H81        28.1724  -44.1593  -56.9206 H         1 UNK         0.1034 
     82 H82        28.1680  -42.6491  -56.0524 H         1 UNK         0.1034 
     83 H83        25.8649  -43.1886  -55.1664 H         1 UNK         0.0482 
     84 H84        25.0278  -44.2614  -58.4174 H         1 UNK         0.3460 
     85 H85        24.8619  -42.6479  -59.0664 H         1 UNK         0.3460 
     86 H86        26.3516  -45.7412  -56.3699 H         1 UNK         0.2989 
     87 H87        24.1753  -47.3660  -55.3231 H         1 UNK         0.0559 
     88 H88        21.8969  -46.6683  -55.9544 H         1 UNK         0.0848 
     89 H89        22.3613  -48.0634  -56.9119 H         1 UNK         0.0848 
     90 H90        22.3763  -46.4533  -57.6306 H         1 UNK         0.0848 
     91 H91        25.4765  -48.2764  -56.8377 H         1 UNK         0.3144 
     92 H92        25.8461  -48.2717  -60.1678 H         1 UNK         0.0727 
     93 H93        28.2296  -47.4620  -60.2454 H         1 UNK         0.0790 
     94 H94        27.9202  -46.4404  -58.8428 H         1 UNK         0.0790 
     95 H95        27.0759  -46.1438  -60.3535 H         1 UNK         0.0790 
     96 H96        27.7181  -48.7671  -57.9496 H         1 UNK         0.3215 
     97 H97        26.2065  -51.7958  -56.9818 H         1 UNK         0.0863 
     98 H98        28.3331  -52.9507  -57.5425 H         1 UNK         0.0808 
     99 H99        28.7797  -51.6541  -58.6513 H         1 UNK         0.0808 
    100 H100       27.3974  -52.6831  -59.0035 H         1 UNK         0.0808 
    101 H101       28.7661  -50.7474  -56.3436 H         1 UNK         0.3118 
    102 H102       27.9348  -47.9837  -54.4181 H         1 UNK         0.0546 
    103 H103       27.2653  -49.5996  -52.6861 H         1 UNK         0.0828 
    104 H104       28.9484  -49.1728  -52.4512 H         1 UNK         0.0828 
    105 H105       28.5213  -50.7217  -53.1765 H         1 UNK         0.0828 
    106 H106       30.3529  -49.4749  -54.5351 H         1 UNK         0.3005 
    107 H107       31.4421  -48.8151  -57.6917 H         1 UNK         0.1257 
    108 H108       33.2317  -47.1525  -56.7530 H         1 UNK         0.0775 
    109 H109       31.9417  -46.4821  -55.7978 H         1 UNK         0.0775 
    110 H110       33.6934  -44.7917  -58.0571 H         1 UNK         0.0840 
    111 H111       32.4032  -43.8544  -58.7714 H         1 UNK         0.0840 
    112 H112       32.8593  -48.9585  -55.1615 H         1 UNK         0.2987 
    113 H113       32.7177  -52.5194  -55.0223 H         1 UNK         0.0785 
    114 H114       35.0742  -50.7142  -55.8031 H         1 UNK         0.0798 
    115 H115       34.5279  -52.1250  -56.6975 H         1 UNK         0.0798 
    116 H116       35.1965  -52.3220  -55.0866 H         1 UNK         0.0798 
    117 H117       34.1644  -50.6153  -53.4721 H         1 UNK         0.3079 
    118 H118       31.8606  -50.6051  -50.8373 H         1 UNK         0.0794 
    119 H119       34.6250  -49.6181  -51.7611 H         1 UNK         0.0786 
    120 H120       34.3063  -51.2038  -51.0553 H         1 UNK         0.0786 
    121 H121       34.0475  -49.7490  -50.1104 H         1 UNK         0.0786 
    122 H122       32.5381  -48.2305  -52.5310 H         1 UNK         0.3032 
    123 H123       30.0022  -46.6820  -52.1375 H         1 UNK         0.1094 
    124 H124       29.5318  -46.1296  -49.7863 H         1 UNK         0.0794 
    125 H125       31.2042  -45.6718  -49.5064 H         1 UNK         0.0794 
    126 H126       30.1915  -44.7160  -50.5883 H         1 UNK         0.0794 
    127 H127       31.6935  -45.7166  -53.1736 H         1 UNK         0.3016 
@<TRIPOS>BOND
     1    1    2 1    
     2    1   67 1    
     3    1   68 1    
     4    1   69 1    
     5    2    3 2    
     6    2    4 am   BACKBONE|DICT|INTERRES
     7    4    5 1    
     8    4   70 1    
     9    5    6 1    
    10    5   65 1    
    11    5   71 1    
    12    6    7 1    
    13    6   72 1    
    14    6   73 1    
    15    7    8 1    
    16    8    9 1    
    17    8   74 1    
    18    8   75 1    
    19    9   10 ar   
    20    9   14 ar   
    21   10   11 ar   
    22   10   76 1    
    23   11   12 ar   
    24   11   48 1    
    25   12   13 ar   
    26   12   77 1    
    27   13   14 ar   
    28   13   15 1    
    29   14   78 1    
    30   15   16 1    
    31   15   79 1    
    32   15   80 1    
    33   16   17 1    
    34   17   18 1    
    35   17   81 1    
    36   17   82 1    
    37   18   19 1    
    38   18   22 1    
    39   18   83 1    
    40   19   20 am   BACKBONE|DICT|INTERRES
    41   19   21 2    
    42   20   84 1    
    43   20   85 1    
    44   22   23 am   BACKBONE|DICT|INTERRES
    45   22   86 1    
    46   23   24 2    
    47   23   25 1    
    48   25   26 1    
    49   25   27 1    
    50   25   87 1    
    51   26   88 1    
    52   26   89 1    
    53   26   90 1    
    54   27   28 am   BACKBONE|DICT|INTERRES
    55   27   91 1    
    56   28   29 2    
    57   28   30 1    
    58   30   31 1    
    59   30   32 1    
    60   30   92 1    
    61   31   93 1    
    62   31   94 1    
    63   31   95 1    
    64   32   33 am   BACKBONE|DICT|INTERRES
    65   32   96 1    
    66   33   34 2    
    67   33   35 1    
    68   35   36 1    
    69   35   37 1    
    70   35   97 1    
    71   36   98 1    
    72   36   99 1    
    73   36  100 1    
    74   37   38 am   BACKBONE|DICT|INTERRES
    75   37  101 1    
    76   38   39 2    
    77   38   40 1    
    78   40   41 1    
    79   40   42 1    
    80   40  102 1    
    81   41  103 1    
    82   41  104 1    
    83   41  105 1    
    84   42   43 am   BACKBONE|DICT|INTERRES
    85   42  106 1    
    86   43   44 2    
    87   43   45 1    
    88   45   46 1    
    89   45   49 1    
    90   45  107 1    
    91   46   47 1    
    92   46  108 1    
    93   46  109 1    
    94   47   48 1    
    95   48  110 1    
    96   48  111 1    
    97   49   50 am   BACKBONE|DICT|INTERRES
    98   49  112 1    
    99   50   51 2    
   100   50   52 1    
   101   52   53 1    
   102   52   54 1    
   103   52  113 1    
   104   53  114 1    
   105   53  115 1    
   106   53  116 1    
   107   54   55 am   BACKBONE|DICT|INTERRES
   108   54  117 1    
   109   55   56 2    
   110   55   57 1    
   111   57   58 1    
   112   57   59 1    
   113   57  118 1    
   114   58  119 1    
   115   58  120 1    
   116   58  121 1    
   117   59   60 am   BACKBONE|DICT|INTERRES
   118   59  122 1    
   119   60   61 2    
   120   60   62 1    
   121   62   63 1    
   122   62   64 1    
   123   62  123 1    
   124   63  124 1    
   125   63  125 1    
   126   63  126 1    
   127   64   65 am   BACKBONE|DICT|INTERRES
   128   64  127 1    
   129   65   66 2    
@<TRIPOS>SUBSTRUCTURE
     1 UNK         1 GROUP             0       ****    0 ROOT    
