@<TRIPOS>MOLECULE
3R134
127   129    1
SMALL
USER_CHARGES


@<TRIPOS>ATOM
      1 CA         31.0430  -46.3930  -47.5102 C.3       0 UNK        -0.1968 
      2 C          32.2477  -46.1295  -48.4017 C.2       0 UNK         0.4852 
      3 O          33.3577  -45.9607  -47.8949 O.2       0 UNK        -0.5359 
      4 N          32.0362  -46.0934  -49.7247 N.am      1 UNK        -0.4300 
      5 CA         33.0716  -45.8374  -50.7367 C.3       1 UNK         0.0863 
      6 C6         32.4583  -45.4380  -52.1026 C.3       11 UNK        -0.0953 
      7 S7         31.4623  -43.9146  -51.9721 S.3       11 UNK        -0.2369 
      8 C8         32.5134  -42.6996  -52.8293 C.3       11 UNK         0.0226 
      9 C9         32.2360  -42.6891  -54.3247 C.ar      11 UNK        -0.0699 
     10 C10        33.0099  -43.4550  -55.2012 C.ar      11 UNK        -0.0804 
     11 C11        32.7246  -43.4686  -56.5709 C.ar      11 UNK        -0.0871 
     12 C12        31.6821  -42.6787  -57.0669 C.ar      11 UNK        -0.1008 
     13 C13        30.8868  -41.9307  -56.1948 C.ar      11 UNK        -0.0735 
     14 C14        31.1765  -41.9293  -54.8279 C.ar      11 UNK        -0.0945 
     15 C15        29.6807  -41.1652  -56.7138 C.3       11 UNK         0.0169 
     16 S16        28.1740  -42.1871  -56.6203 S.3       11 UNK        -0.2669 
     17 C17        28.3685  -43.2632  -58.0826 C.3       11 UNK        -0.0850 
     18 CA         27.0031  -43.8078  -58.5829 C.3       10 UNK         0.0855 
     19 C          27.0732  -44.3365  -60.0483 C.2       10 UNK         0.5543 
     20 N          26.4363  -45.4479  -60.3966 N.am      10 UNK        -0.7343 
     21 O          27.7055  -43.7162  -60.8994 O.2       10 UNK        -0.5027 
     22 N          26.4331  -44.7782  -57.6320 N.am      10 UNK        -0.4495 
     23 C          25.1303  -44.9234  -57.3668 C.2       10 UNK         0.4903 
     24 O          24.2492  -44.1856  -57.8118 O.2       10 UNK        -0.4860 
     25 CA         24.7625  -46.1356  -56.4879 C.3       9 UNK         0.0227 
     26 CB         23.2422  -46.2912  -56.2744 C.3       9 UNK        -0.1964 
     27 N          25.3442  -47.3842  -56.9988 N.am      9 UNK        -0.4231 
     28 C          25.1771  -47.9273  -58.2154 C.2       9 UNK         0.5014 
     29 O          24.4602  -47.4400  -59.0900 O.2       9 UNK        -0.5270 
     30 CA         25.9745  -49.2024  -58.5484 C.3       8 UNK         0.0284 
     31 CB         27.0919  -48.8815  -59.5553 C.3       8 UNK        -0.1977 
     32 N          26.5689  -49.8541  -57.3802 N.am      8 UNK        -0.4342 
     33 C          25.8955  -50.5639  -56.4654 C.2       8 UNK         0.5039 
     34 O          24.6848  -50.7817  -56.5179 O.2       8 UNK        -0.5547 
     35 CA         26.7126  -51.0947  -55.2767 C.3       7 UNK         0.0281 
     36 CB         27.4461  -52.3934  -55.6506 C.3       7 UNK        -0.1963 
     37 N          27.6777  -50.1049  -54.7918 N.am      7 UNK        -0.4444 
     38 C          27.3514  -48.9988  -54.1085 C.2       7 UNK         0.5104 
     39 O          26.2029  -48.7116  -53.7727 O.2       7 UNK        -0.5100 
     40 CA         28.4994  -48.0350  -53.7700 C.3       6 UNK         0.0396 
     41 CB         29.2131  -48.4722  -52.4809 C.3       6 UNK        -0.1801 
     42 N          29.4698  -47.9243  -54.8611 N.am      6 UNK        -0.4747 
     43 C          29.2295  -47.2839  -56.0169 C.2       6 UNK         0.5012 
     44 O          28.1733  -46.7050  -56.2738 O.2       6 UNK        -0.5003 
     45 CA         30.3510  -47.2878  -57.0763 C.3       5 UNK         0.0782 
     46 C46        31.2949  -46.0985  -56.8000 C.3       11 UNK        -0.0868 
     47 S47        32.4048  -45.7199  -58.1977 S.3       11 UNK        -0.2515 
     48 C48        33.4799  -44.4121  -57.4995 C.3       11 UNK         0.0199 
     49 N          31.0930  -48.5495  -57.1363 N.am      5 UNK        -0.4607 
     50 C          30.5720  -49.7771  -57.2624 C.2       4 UNK         0.5031 
     51 O          29.3778  -49.9970  -57.4577 O.2       4 UNK        -0.5119 
     52 CA         31.5304  -50.9660  -57.0656 C.3       4 UNK         0.0263 
     53 CB         31.9642  -51.5298  -58.4274 C.3       4 UNK        -0.1967 
     54 N          32.7222  -50.6620  -56.2591 N.am      4 UNK        -0.4237 
     55 C          32.7163  -50.1731  -55.0100 C.2       3 UNK         0.4908 
     56 O          31.6903  -49.8961  -54.3797 O.2       3 UNK        -0.5102 
     57 CA         34.0869  -49.8838  -54.3916 C.3       3 UNK         0.0241 
     58 CB         34.7253  -48.6344  -55.0302 C.3       3 UNK        -0.1971 
     59 N          33.9082  -49.6587  -52.9627 N.am      3 UNK        -0.4139 
     60 C          34.8225  -49.8663  -52.0102 C.2       2 UNK         0.5016 
     61 O          35.9518  -50.3102  -52.2289 O.2       2 UNK        -0.5319 
     62 CA         34.3917  -49.4954  -50.5760 C.3       2 UNK         0.0286 
     63 CB         35.5711  -49.4730  -49.5797 C.3       2 UNK        -0.1963 
     64 N          33.6378  -48.2326  -50.5136 N.am      2 UNK        -0.4790 
     65 C          34.0555  -47.0158  -50.9069 C.2       1 UNK         0.5024 
     66 O          35.1656  -46.7936  -51.3919 O.2       1 UNK        -0.4888 
     67 H67        30.8942  -45.5587  -46.8254 H         1 UNK         0.0892 
     68 H68        31.2034  -47.2945  -46.9195 H         1 UNK         0.0892 
     69 H69        30.1280  -46.5243  -48.0877 H         1 UNK         0.0892 
     70 H70        31.0971  -46.2022  -50.0801 H         1 UNK         0.3107 
     71 H71        33.6696  -44.9934  -50.3849 H         1 UNK         0.0773 
     72 H72        31.8213  -46.2339  -52.4911 H         1 UNK         0.0680 
     73 H73        33.2410  -45.2924  -52.8485 H         1 UNK         0.0680 
     74 H74        32.3113  -41.7108  -52.4149 H         1 UNK         0.0650 
     75 H75        33.5666  -42.9020  -52.6279 H         1 UNK         0.0650 
     76 H76        33.8118  -44.0670  -54.8122 H         1 UNK         0.1397 
     77 H77        31.4484  -42.7031  -58.1226 H         1 UNK         0.1363 
     78 H78        30.5565  -41.3595  -54.1491 H         1 UNK         0.1355 
     79 H79        29.8468  -40.8248  -57.7369 H         1 UNK         0.0707 
     80 H80        29.5316  -40.2649  -56.1157 H         1 UNK         0.0707 
     81 H81        29.0475  -44.0826  -57.8455 H         1 UNK         0.1034 
     82 H82        28.8599  -42.6773  -58.8612 H         1 UNK         0.1034 
     83 H83        26.3278  -42.9523  -58.6432 H         1 UNK         0.0482 
     84 H84        25.8437  -45.9405  -59.7418 H         1 UNK         0.3460 
     85 H85        26.4903  -45.7583  -61.3534 H         1 UNK         0.3460 
     86 H86        27.0842  -45.4391  -57.2160 H         1 UNK         0.2989 
     87 H87        25.2187  -45.9612  -55.5122 H         1 UNK         0.0559 
     88 H88        23.0191  -47.1349  -55.6214 H         1 UNK         0.0848 
     89 H89        22.7136  -46.4469  -57.2155 H         1 UNK         0.0848 
     90 H90        22.8204  -45.3999  -55.8083 H         1 UNK         0.0848 
     91 H91        26.0089  -47.8326  -56.3829 H         1 UNK         0.3144 
     92 H92        25.2833  -49.9062  -59.0166 H         1 UNK         0.0727 
     93 H93        27.6499  -49.7772  -59.8292 H         1 UNK         0.0790 
     94 H94        27.8000  -48.1564  -59.1525 H         1 UNK         0.0790 
     95 H95        26.6828  -48.4627  -60.4755 H         1 UNK         0.0790 
     96 H96        27.5839  -49.7976  -57.2979 H         1 UNK         0.3215 
     97 H97        26.0154  -51.3191  -54.4662 H         1 UNK         0.0863 
     98 H98        27.9828  -52.8058  -54.7961 H         1 UNK         0.0808 
     99 H99        28.1651  -52.2394  -56.4560 H         1 UNK         0.0808 
    100 H100       26.7404  -53.1543  -55.9867 H         1 UNK         0.0808 
    101 H101       28.6440  -50.2360  -55.0558 H         1 UNK         0.3118 
    102 H102       28.0669  -47.0469  -53.5970 H         1 UNK         0.0546 
    103 H103       28.5107  -48.5299  -51.6483 H         1 UNK         0.0828 
    104 H104       29.9907  -47.7642  -52.1983 H         1 UNK         0.0828 
    105 H105       29.6749  -49.4547  -52.5851 H         1 UNK         0.0828 
    106 H106       30.3479  -48.4211  -54.7435 H         1 UNK         0.3005 
    107 H107       29.8710  -47.1433  -58.0464 H         1 UNK         0.1257 
    108 H108       31.8959  -46.2793  -55.9062 H         1 UNK         0.0775 
    109 H109       30.7082  -45.2024  -56.5926 H         1 UNK         0.0775 
    110 H110       34.3078  -44.8889  -56.9725 H         1 UNK         0.0840 
    111 H111       33.9251  -43.8412  -58.3154 H         1 UNK         0.0840 
    112 H112       32.0903  -48.4740  -57.0064 H         1 UNK         0.2987 
    113 H113       30.9707  -51.7403  -56.5368 H         1 UNK         0.0785 
    114 H114       32.5574  -50.8097  -58.9926 H         1 UNK         0.0798 
    115 H115       31.0968  -51.7872  -59.0374 H         1 UNK         0.0798 
    116 H116       32.5559  -52.4381  -58.3122 H         1 UNK         0.0798 
    117 H117       33.6137  -50.8454  -56.6977 H         1 UNK         0.3079 
    118 H118       34.7275  -50.7544  -54.5483 H         1 UNK         0.0794 
    119 H119       34.0966  -47.7517  -54.9040 H         1 UNK         0.0786 
    120 H120       34.8893  -48.7714  -56.0996 H         1 UNK         0.0786 
    121 H121       35.6953  -48.4148  -54.5833 H         1 UNK         0.0786 
    122 H122       32.9761  -49.3596  -52.7050 H         1 UNK         0.3032 
    123 H123       33.7083  -50.2839  -50.2556 H         1 UNK         0.1094 
    124 H124       36.3307  -48.7451  -49.8665 H         1 UNK         0.0794 
    125 H125       35.2346  -49.2266  -48.5725 H         1 UNK         0.0794 
    126 H126       36.0585  -50.4474  -49.5283 H         1 UNK         0.0794 
    127 H127       32.7066  -48.2972  -50.1265 H         1 UNK         0.3016 
@<TRIPOS>BOND
     1    1    2 1    
     2    1   67 1    
     3    1   68 1    
     4    1   69 1    
     5    2    3 2    
     6    2    4 am   BACKBONE|DICT|INTERRES
     7    4    5 1    
     8    4   70 1    
     9    5    6 1    
    10    5   65 1    
    11    5   71 1    
    12    6    7 1    
    13    6   72 1    
    14    6   73 1    
    15    7    8 1    
    16    8    9 1    
    17    8   74 1    
    18    8   75 1    
    19    9   10 ar   
    20    9   14 ar   
    21   10   11 ar   
    22   10   76 1    
    23   11   12 ar   
    24   11   48 1    
    25   12   13 ar   
    26   12   77 1    
    27   13   14 ar   
    28   13   15 1    
    29   14   78 1    
    30   15   16 1    
    31   15   79 1    
    32   15   80 1    
    33   16   17 1    
    34   17   18 1    
    35   17   81 1    
    36   17   82 1    
    37   18   19 1    
    38   18   22 1    
    39   18   83 1    
    40   19   20 am   BACKBONE|DICT|INTERRES
    41   19   21 2    
    42   20   84 1    
    43   20   85 1    
    44   22   23 am   BACKBONE|DICT|INTERRES
    45   22   86 1    
    46   23   24 2    
    47   23   25 1    
    48   25   26 1    
    49   25   27 1    
    50   25   87 1    
    51   26   88 1    
    52   26   89 1    
    53   26   90 1    
    54   27   28 am   BACKBONE|DICT|INTERRES
    55   27   91 1    
    56   28   29 2    
    57   28   30 1    
    58   30   31 1    
    59   30   32 1    
    60   30   92 1    
    61   31   93 1    
    62   31   94 1    
    63   31   95 1    
    64   32   33 am   BACKBONE|DICT|INTERRES
    65   32   96 1    
    66   33   34 2    
    67   33   35 1    
    68   35   36 1    
    69   35   37 1    
    70   35   97 1    
    71   36   98 1    
    72   36   99 1    
    73   36  100 1    
    74   37   38 am   BACKBONE|DICT|INTERRES
    75   37  101 1    
    76   38   39 2    
    77   38   40 1    
    78   40   41 1    
    79   40   42 1    
    80   40  102 1    
    81   41  103 1    
    82   41  104 1    
    83   41  105 1    
    84   42   43 am   BACKBONE|DICT|INTERRES
    85   42  106 1    
    86   43   44 2    
    87   43   45 1    
    88   45   46 1    
    89   45   49 1    
    90   45  107 1    
    91   46   47 1    
    92   46  108 1    
    93   46  109 1    
    94   47   48 1    
    95   48  110 1    
    96   48  111 1    
    97   49   50 am   BACKBONE|DICT|INTERRES
    98   49  112 1    
    99   50   51 2    
   100   50   52 1    
   101   52   53 1    
   102   52   54 1    
   103   52  113 1    
   104   53  114 1    
   105   53  115 1    
   106   53  116 1    
   107   54   55 am   BACKBONE|DICT|INTERRES
   108   54  117 1    
   109   55   56 2    
   110   55   57 1    
   111   57   58 1    
   112   57   59 1    
   113   57  118 1    
   114   58  119 1    
   115   58  120 1    
   116   58  121 1    
   117   59   60 am   BACKBONE|DICT|INTERRES
   118   59  122 1    
   119   60   61 2    
   120   60   62 1    
   121   62   63 1    
   122   62   64 1    
   123   62  123 1    
   124   63  124 1    
   125   63  125 1    
   126   63  126 1    
   127   64   65 am   BACKBONE|DICT|INTERRES
   128   64  127 1    
   129   65   66 2    
@<TRIPOS>SUBSTRUCTURE
     1 UNK         1 GROUP             0       ****    0 ROOT    
