@<TRIPOS>MOLECULE
3R134
127   129    1
SMALL
USER_CHARGES


@<TRIPOS>ATOM
      1 CA         37.8194  -47.9517  -51.3517 C.3       0 UNK        -0.1968 
      2 C          36.6204  -47.7821  -52.2718 C.2       0 UNK         0.4852 
      3 O          35.9284  -48.7596  -52.5644 O.2       0 UNK        -0.5359 
      4 N          36.3483  -46.5450  -52.7149 N.am      1 UNK        -0.4300 
      5 CA         35.2591  -46.2029  -53.6414 C.3       1 UNK         0.0863 
      6 C6         35.4410  -44.8006  -54.2711 C.3       11 UNK        -0.0953 
      7 S7         35.2449  -43.4143  -53.0984 S.3       11 UNK        -0.2369 
      8 C8         34.3719  -42.1861  -54.1255 C.3       11 UNK         0.0226 
      9 C9         32.9573  -42.6201  -54.4908 C.ar      11 UNK        -0.0699 
     10 C10        31.9590  -42.6478  -53.5141 C.ar      11 UNK        -0.0804 
     11 C11        30.6550  -43.0307  -53.8394 C.ar      11 UNK        -0.0871 
     12 C12        30.3565  -43.3750  -55.1620 C.ar      11 UNK        -0.1008 
     13 C13        31.3423  -43.3621  -56.1563 C.ar      11 UNK        -0.0735 
     14 C14        32.6406  -42.9755  -55.8064 C.ar      11 UNK        -0.0945 
     15 C15        31.0659  -43.7482  -57.6138 C.3       11 UNK         0.0169 
     16 S16        29.4761  -44.5903  -57.9474 S.3       11 UNK        -0.2669 
     17 C17        28.3096  -43.1789  -58.0072 C.3       11 UNK        -0.0850 
     18 CA         26.8755  -43.5643  -58.4662 C.3       10 UNK         0.0855 
     19 C          26.7556  -43.6848  -60.0159 C.2       10 UNK         0.5543 
     20 N          26.2279  -44.7671  -60.5755 N.am      10 UNK        -0.7343 
     21 O          27.1332  -42.7597  -60.7310 O.2       10 UNK        -0.5027 
     22 N          26.3616  -44.7174  -57.7115 N.am      10 UNK        -0.4495 
     23 C          25.0734  -44.9854  -57.4665 C.2       10 UNK         0.4903 
     24 O          24.1500  -44.2170  -57.7397 O.2       10 UNK        -0.4860 
     25 CA         24.7803  -46.3618  -56.8293 C.3       9 UNK         0.0227 
     26 CB         23.2968  -46.7737  -56.9413 C.3       9 UNK        -0.1964 
     27 N          25.6601  -47.4274  -57.3412 N.am      9 UNK        -0.4231 
     28 C          25.7870  -47.7957  -58.6272 C.2       9 UNK         0.5014 
     29 O          25.1201  -47.3084  -59.5411 O.2       9 UNK        -0.5270 
     30 CA         26.8625  -48.8261  -58.9952 C.3       8 UNK         0.0284 
     31 CB         28.0521  -48.1171  -59.6664 C.3       8 UNK        -0.1977 
     32 N          27.3560  -49.6092  -57.8601 N.am      8 UNK        -0.4342 
     33 C          26.9156  -50.8359  -57.5524 C.2       8 UNK         0.5039 
     34 O          25.9380  -51.3662  -58.0827 O.2       8 UNK        -0.5547 
     35 CA         27.7295  -51.6319  -56.5192 C.3       7 UNK         0.0281 
     36 CB         29.0777  -52.0728  -57.1137 C.3       7 UNK        -0.1963 
     37 N          27.9568  -50.9030  -55.2723 N.am      7 UNK        -0.4444 
     38 C          27.0137  -50.6851  -54.3460 C.2       7 UNK         0.5104 
     39 O          25.8479  -51.0688  -54.4480 O.2       7 UNK        -0.5100 
     40 CA         27.4406  -49.9124  -53.0854 C.3       6 UNK         0.0396 
     41 CB         28.0950  -50.8583  -52.0662 C.3       6 UNK        -0.1801 
     42 N          28.3470  -48.7976  -53.3636 N.am      6 UNK        -0.4747 
     43 C          28.0352  -47.7294  -54.1121 C.2       6 UNK         0.5012 
     44 O          26.9440  -47.5659  -54.6567 O.2       6 UNK        -0.5003 
     45 CA         29.1575  -46.6990  -54.3334 C.3       5 UNK         0.0782 
     46 C46        29.4305  -45.8828  -53.0417 C.3       11 UNK        -0.0868 
     47 S47        28.3601  -44.4119  -52.9189 S.3       11 UNK        -0.2515 
     48 C48        29.5868  -43.0657  -52.7462 C.3       11 UNK         0.0199 
     49 N          30.3740  -47.3250  -54.8583 N.am      5 UNK        -0.4607 
     50 C          30.4523  -48.0818  -55.9621 C.2       4 UNK         0.5031 
     51 O          29.5091  -48.2979  -56.7197 O.2       4 UNK        -0.5119 
     52 CA         31.7937  -48.7799  -56.2284 C.3       4 UNK         0.0263 
     53 CB         32.7722  -47.8378  -56.9491 C.3       4 UNK        -0.1967 
     54 N          32.3904  -49.2971  -54.9936 N.am      4 UNK        -0.4237 
     55 C          31.8607  -50.2864  -54.2567 C.2       3 UNK         0.4908 
     56 O          30.8567  -50.9207  -54.5809 O.2       3 UNK        -0.5102 
     57 CA         32.5344  -50.5827  -52.9066 C.3       3 UNK         0.0241 
     58 CB         33.7873  -51.4514  -53.0990 C.3       3 UNK        -0.1971 
     59 N          32.8836  -49.3577  -52.1826 N.am      3 UNK        -0.4139 
     60 C          31.9798  -48.5009  -51.6790 C.2       2 UNK         0.5016 
     61 O          30.7651  -48.7003  -51.7030 O.2       2 UNK        -0.5319 
     62 CA         32.5092  -47.1752  -51.0964 C.3       2 UNK         0.0286 
     63 CB         32.7732  -47.3186  -49.5898 C.3       2 UNK        -0.1963 
     64 N          33.7254  -46.6937  -51.7583 N.am      2 UNK        -0.4790 
     65 C          33.8401  -46.4302  -53.0695 C.2       1 UNK         0.5024 
     66 O          32.8805  -46.4374  -53.8375 O.2       1 UNK        -0.4888 
     67 H67        38.5339  -48.6457  -51.7934 H         1 UNK         0.0892 
     68 H68        38.3317  -47.0070  -51.1703 H         1 UNK         0.0892 
     69 H69        37.5009  -48.3559  -50.3912 H         1 UNK         0.0892 
     70 H70        36.9294  -45.7705  -52.4250 H         1 UNK         0.3107 
     71 H71        35.3412  -46.9140  -54.4665 H         1 UNK         0.0773 
     72 H72        34.7404  -44.6851  -55.0984 H         1 UNK         0.0680 
     73 H73        36.4315  -44.7229  -54.7218 H         1 UNK         0.0680 
     74 H74        34.3246  -41.2437  -53.5782 H         1 UNK         0.0650 
     75 H75        34.9616  -41.9878  -55.0219 H         1 UNK         0.0650 
     76 H76        32.2047  -42.3752  -52.4967 H         1 UNK         0.1397 
     77 H77        29.3487  -43.6719  -55.3990 H         1 UNK         0.1363 
     78 H78        33.4116  -42.9539  -56.5646 H         1 UNK         0.1355 
     79 H79        31.1394  -42.8577  -58.2394 H         1 UNK         0.0707 
     80 H80        31.8589  -44.4204  -57.9454 H         1 UNK         0.0707 
     81 H81        28.7266  -42.3965  -58.6443 H         1 UNK         0.1034 
     82 H82        28.2459  -42.7275  -57.0181 H         1 UNK         0.1034 
     83 H83        26.2391  -42.7137  -58.2148 H         1 UNK         0.0482 
     84 H84        26.1571  -44.8088  -61.5793 H         1 UNK         0.3460 
     85 H85        25.8695  -45.5347  -60.0184 H         1 UNK         0.3460 
     86 H86        27.0538  -45.4117  -57.4709 H         1 UNK         0.2989 
     87 H87        25.0052  -46.2522  -55.7684 H         1 UNK         0.0559 
     88 H88        22.9712  -46.8428  -57.9797 H         1 UNK         0.0848 
     89 H89        22.6509  -46.0471  -56.4470 H         1 UNK         0.0848 
     90 H90        23.1172  -47.7391  -56.4682 H         1 UNK         0.0848 
     91 H91        26.2612  -47.8577  -56.6459 H         1 UNK         0.3144 
     92 H92        26.4225  -49.4968  -59.7365 H         1 UNK         0.0727 
     93 H93        28.5102  -47.3796  -59.0065 H         1 UNK         0.0790 
     94 H94        27.7363  -47.5901  -60.5679 H         1 UNK         0.0790 
     95 H95        28.8244  -48.8277  -59.9610 H         1 UNK         0.0790 
     96 H96        28.1640  -49.2254  -57.3659 H         1 UNK         0.3215 
     97 H97        27.1633  -52.5354  -56.2815 H         1 UNK         0.0863 
     98 H98        29.7201  -51.2208  -57.3381 H         1 UNK         0.0808 
     99 H99        28.9336  -52.6277  -58.0417 H         1 UNK         0.0808 
    100 H100       29.6181  -52.7247  -56.4270 H         1 UNK         0.0808 
    101 H101       28.9078  -50.6028  -55.0796 H         1 UNK         0.3118 
    102 H102       26.5389  -49.4962  -52.6316 H         1 UNK         0.0546 
    103 H103       28.3244  -50.3400  -51.1350 H         1 UNK         0.0828 
    104 H104       29.0245  -51.2822  -52.4484 H         1 UNK         0.0828 
    105 H105       27.4321  -51.6892  -51.8212 H         1 UNK         0.0828 
    106 H106       29.2673  -48.8373  -52.9307 H         1 UNK         0.3005 
    107 H107       28.8187  -46.0215  -55.1197 H         1 UNK         0.1257 
    108 H108       30.4692  -45.5548  -53.0239 H         1 UNK         0.0775 
    109 H109       29.3073  -46.4804  -52.1368 H         1 UNK         0.0775 
    110 H110       29.0598  -42.1108  -52.7429 H         1 UNK         0.0840 
    111 H111       30.0560  -43.1623  -51.7657 H         1 UNK         0.0840 
    112 H112       31.2327  -47.1428  -54.3458 H         1 UNK         0.2987 
    113 H113       31.6010  -49.6304  -56.8854 H         1 UNK         0.0785 
    114 H114       33.7180  -48.3347  -57.1645 H         1 UNK         0.0798 
    115 H115       32.3553  -47.5078  -57.9017 H         1 UNK         0.0798 
    116 H116       32.9866  -46.9412  -56.3678 H         1 UNK         0.0798 
    117 H117       33.1905  -48.8004  -54.6314 H         1 UNK         0.3079 
    118 H118       31.8222  -51.1430  -52.2968 H         1 UNK         0.0794 
    119 H119       34.2334  -51.7199  -52.1412 H         1 UNK         0.0786 
    120 H120       34.5489  -50.9410  -53.6900 H         1 UNK         0.0786 
    121 H121       33.5417  -52.3810  -53.6143 H         1 UNK         0.0786 
    122 H122       33.8684  -49.1152  -52.1397 H         1 UNK         0.3032 
    123 H123       31.7343  -46.4201  -51.2359 H         1 UNK         0.1094 
    124 H124       31.8761  -47.6557  -49.0680 H         1 UNK         0.0794 
    125 H125       33.5619  -48.0434  -49.3840 H         1 UNK         0.0794 
    126 H126       33.0653  -46.3670  -49.1453 H         1 UNK         0.0794 
    127 H127       34.5658  -46.6624  -51.2000 H         1 UNK         0.3016 
@<TRIPOS>BOND
     1    1    2 1    
     2    1   67 1    
     3    1   68 1    
     4    1   69 1    
     5    2    3 2    
     6    2    4 am   BACKBONE|DICT|INTERRES
     7    4    5 1    
     8    4   70 1    
     9    5    6 1    
    10    5   65 1    
    11    5   71 1    
    12    6    7 1    
    13    6   72 1    
    14    6   73 1    
    15    7    8 1    
    16    8    9 1    
    17    8   74 1    
    18    8   75 1    
    19    9   10 ar   
    20    9   14 ar   
    21   10   11 ar   
    22   10   76 1    
    23   11   12 ar   
    24   11   48 1    
    25   12   13 ar   
    26   12   77 1    
    27   13   14 ar   
    28   13   15 1    
    29   14   78 1    
    30   15   16 1    
    31   15   79 1    
    32   15   80 1    
    33   16   17 1    
    34   17   18 1    
    35   17   81 1    
    36   17   82 1    
    37   18   19 1    
    38   18   22 1    
    39   18   83 1    
    40   19   20 am   BACKBONE|DICT|INTERRES
    41   19   21 2    
    42   20   84 1    
    43   20   85 1    
    44   22   23 am   BACKBONE|DICT|INTERRES
    45   22   86 1    
    46   23   24 2    
    47   23   25 1    
    48   25   26 1    
    49   25   27 1    
    50   25   87 1    
    51   26   88 1    
    52   26   89 1    
    53   26   90 1    
    54   27   28 am   BACKBONE|DICT|INTERRES
    55   27   91 1    
    56   28   29 2    
    57   28   30 1    
    58   30   31 1    
    59   30   32 1    
    60   30   92 1    
    61   31   93 1    
    62   31   94 1    
    63   31   95 1    
    64   32   33 am   BACKBONE|DICT|INTERRES
    65   32   96 1    
    66   33   34 2    
    67   33   35 1    
    68   35   36 1    
    69   35   37 1    
    70   35   97 1    
    71   36   98 1    
    72   36   99 1    
    73   36  100 1    
    74   37   38 am   BACKBONE|DICT|INTERRES
    75   37  101 1    
    76   38   39 2    
    77   38   40 1    
    78   40   41 1    
    79   40   42 1    
    80   40  102 1    
    81   41  103 1    
    82   41  104 1    
    83   41  105 1    
    84   42   43 am   BACKBONE|DICT|INTERRES
    85   42  106 1    
    86   43   44 2    
    87   43   45 1    
    88   45   46 1    
    89   45   49 1    
    90   45  107 1    
    91   46   47 1    
    92   46  108 1    
    93   46  109 1    
    94   47   48 1    
    95   48  110 1    
    96   48  111 1    
    97   49   50 am   BACKBONE|DICT|INTERRES
    98   49  112 1    
    99   50   51 2    
   100   50   52 1    
   101   52   53 1    
   102   52   54 1    
   103   52  113 1    
   104   53  114 1    
   105   53  115 1    
   106   53  116 1    
   107   54   55 am   BACKBONE|DICT|INTERRES
   108   54  117 1    
   109   55   56 2    
   110   55   57 1    
   111   57   58 1    
   112   57   59 1    
   113   57  118 1    
   114   58  119 1    
   115   58  120 1    
   116   58  121 1    
   117   59   60 am   BACKBONE|DICT|INTERRES
   118   59  122 1    
   119   60   61 2    
   120   60   62 1    
   121   62   63 1    
   122   62   64 1    
   123   62  123 1    
   124   63  124 1    
   125   63  125 1    
   126   63  126 1    
   127   64   65 am   BACKBONE|DICT|INTERRES
   128   64  127 1    
   129   65   66 2    
@<TRIPOS>SUBSTRUCTURE
     1 UNK         1 GROUP             0       ****    0 ROOT    
