@<TRIPOS>MOLECULE
3R134
127   129    1
SMALL
USER_CHARGES


@<TRIPOS>ATOM
      1 CA         34.0593  -40.1358  -50.4937 C.3       0 UNK        -0.1968 
      2 C          34.4554  -41.5321  -50.0363 C.2       0 UNK         0.4852 
      3 O          34.3997  -41.8226  -48.8400 O.2       0 UNK        -0.5359 
      4 N          34.8633  -42.3931  -50.9769 N.am      1 UNK        -0.4300 
      5 CA         35.2094  -43.7975  -50.7442 C.3       1 UNK         0.0863 
      6 C6         36.0230  -44.4000  -51.9221 C.3       11 UNK        -0.0953 
      7 S7         35.3216  -44.0840  -53.5813 S.3       11 UNK        -0.2369 
      8 C8         34.5219  -45.6782  -53.9221 C.3       11 UNK         0.0226 
      9 C9         33.6826  -45.6258  -55.1882 C.ar      11 UNK        -0.0699 
     10 C10        34.1173  -46.2637  -56.3543 C.ar      11 UNK        -0.0804 
     11 C11        33.3183  -46.2616  -57.5019 C.ar      11 UNK        -0.0871 
     12 C12        32.0889  -45.6011  -57.4821 C.ar      11 UNK        -0.1008 
     13 C13        31.6276  -44.9917  -56.3128 C.ar      11 UNK        -0.0735 
     14 C14        32.4385  -44.9869  -55.1742 C.ar      11 UNK        -0.0945 
     15 C15        30.2349  -44.3830  -56.2736 C.3       11 UNK         0.0169 
     16 S16        28.9770  -45.6341  -56.6854 S.3       11 UNK        -0.2669 
     17 C17        27.4305  -44.7485  -56.3052 C.3       11 UNK        -0.0850 
     18 CA         26.5295  -45.5556  -55.3350 C.3       10 UNK         0.0855 
     19 C          25.3547  -44.6763  -54.8115 C.2       10 UNK         0.5543 
     20 N          24.0933  -45.0003  -55.0709 N.am      10 UNK        -0.7343 
     21 O          25.5967  -43.6739  -54.1437 O.2       10 UNK        -0.5027 
     22 N          26.1168  -46.8398  -55.9255 N.am      10 UNK        -0.4495 
     23 C          25.6612  -47.8901  -55.2277 C.2       10 UNK         0.4903 
     24 O          25.6629  -47.9347  -53.9961 O.2       10 UNK        -0.4860 
     25 CA         25.0815  -49.0794  -56.0308 C.3       9 UNK         0.0227 
     26 CB         24.0691  -49.9081  -55.2132 C.3       9 UNK        -0.1964 
     27 N          24.4967  -48.6958  -57.3229 N.am      9 UNK        -0.4231 
     28 C          23.5624  -47.7577  -57.5523 C.2       9 UNK         0.5014 
     29 O          22.9529  -47.1707  -56.6564 O.2       9 UNK        -0.5270 
     30 CA         23.3043  -47.3697  -59.0263 C.3       8 UNK         0.0284 
     31 CB         22.8960  -45.8882  -59.1733 C.3       8 UNK        -0.1977 
     32 N          24.4254  -47.6823  -59.9271 N.am      8 UNK        -0.4342 
     33 C          25.6976  -47.2682  -59.8177 C.2       8 UNK         0.5039 
     34 O          26.0985  -46.4927  -58.9483 O.2       8 UNK        -0.5547 
     35 CA         26.7034  -47.9070  -60.7934 C.3       7 UNK         0.0281 
     36 CB         27.7450  -46.8793  -61.2708 C.3       7 UNK        -0.1963 
     37 N          27.4076  -49.0509  -60.2004 N.am      7 UNK        -0.4444 
     38 C          26.8560  -50.1415  -59.6459 C.2       7 UNK         0.5104 
     39 O          25.6426  -50.3364  -59.5699 O.2       7 UNK        -0.5100 
     40 CA         27.8073  -51.2094  -59.0725 C.3       6 UNK         0.0396 
     41 CB         27.9180  -52.3969  -60.0420 C.3       6 UNK        -0.1801 
     42 N          29.1553  -50.7303  -58.7446 N.am      6 UNK        -0.4747 
     43 C          29.4385  -49.8328  -57.7896 C.2       6 UNK         0.5012 
     44 O          28.5706  -49.2625  -57.1242 O.2       6 UNK        -0.5003 
     45 CA         30.9373  -49.5356  -57.5564 C.3       5 UNK         0.0782 
     46 C46        31.5861  -48.8503  -58.7881 C.3       11 UNK        -0.0868 
     47 S47        33.4080  -48.7815  -58.6547 S.3       11 UNK        -0.2515 
     48 C48        33.7658  -46.9968  -58.7551 C.3       11 UNK         0.0199 
     49 N          31.1211  -48.7497  -56.3345 N.am      5 UNK        -0.4607 
     50 C          31.0433  -49.2443  -55.0946 C.2       4 UNK         0.5031 
     51 O          30.9091  -50.4425  -54.8322 O.2       4 UNK        -0.5119 
     52 CA         31.0797  -48.2126  -53.9569 C.3       4 UNK         0.0263 
     53 CB         29.6553  -47.8931  -53.4740 C.3       4 UNK        -0.1967 
     54 N          31.8966  -48.6285  -52.8158 N.am      4 UNK        -0.4237 
     55 C          33.2017  -48.9272  -52.8512 C.2       3 UNK         0.4908 
     56 O          33.8874  -48.9065  -53.8743 O.2       3 UNK        -0.5102 
     57 CA         33.8578  -49.2545  -51.4963 C.3       3 UNK         0.0241 
     58 CB         35.3080  -49.7529  -51.6463 C.3       3 UNK        -0.1971 
     59 N          33.8499  -48.0949  -50.5999 N.am      3 UNK        -0.4139 
     60 C          32.7948  -47.6620  -49.8959 C.2       2 UNK         0.5016 
     61 O          31.6854  -48.1968  -49.9364 O.2       2 UNK        -0.5319 
     62 CA         33.0071  -46.4352  -48.9928 C.3       2 UNK         0.0286 
     63 CB         33.2940  -46.8805  -47.5495 C.3       2 UNK        -0.1963 
     64 N          34.0924  -45.5596  -49.4503 N.am      2 UNK        -0.4790 
     65 C          33.9549  -44.6339  -50.4098 C.2       1 UNK         0.5024 
     66 O          32.9022  -44.4384  -51.0221 O.2       1 UNK        -0.4888 
     67 H67        34.6829  -39.3889  -50.0033 H         1 UNK         0.0892 
     68 H68        34.1681  -40.0135  -51.5712 H         1 UNK         0.0892 
     69 H69        33.0200  -39.9370  -50.2335 H         1 UNK         0.0892 
     70 H70        34.8583  -42.1145  -51.9482 H         1 UNK         0.3107 
     71 H71        35.8568  -43.8212  -49.8646 H         1 UNK         0.0773 
     72 H72        37.0220  -43.9614  -51.9166 H         1 UNK         0.0680 
     73 H73        36.1824  -45.4711  -51.7828 H         1 UNK         0.0680 
     74 H74        35.2857  -46.4539  -53.9962 H         1 UNK         0.0650 
     75 H75        33.8814  -45.9551  -53.0845 H         1 UNK         0.0650 
     76 H76        35.0649  -46.7849  -56.3618 H         1 UNK         0.1397 
     77 H77        31.4633  -45.5973  -58.3644 H         1 UNK         0.1363 
     78 H78        32.0921  -44.5186  -54.2624 H         1 UNK         0.1355 
     79 H79        30.0238  -43.9714  -55.2853 H         1 UNK         0.0707 
     80 H80        30.1762  -43.5568  -56.9834 H         1 UNK         0.0707 
     81 H81        26.9036  -44.5484  -57.2399 H         1 UNK         0.1034 
     82 H82        27.6749  -43.7719  -55.8833 H         1 UNK         0.1034 
     83 H83        27.1311  -45.7855  -54.4535 H         1 UNK         0.0482 
     84 H84        23.8591  -45.8249  -55.6160 H         1 UNK         0.3460 
     85 H85        23.3551  -44.4149  -54.7150 H         1 UNK         0.3460 
     86 H86        26.1040  -46.8702  -56.9409 H         1 UNK         0.2989 
     87 H87        25.9285  -49.7260  -56.2640 H         1 UNK         0.0559 
     88 H88        23.6909  -50.7530  -55.7884 H         1 UNK         0.0848 
     89 H89        23.2156  -49.3056  -54.9004 H         1 UNK         0.0848 
     90 H90        24.5297  -50.3135  -54.3115 H         1 UNK         0.0848 
     91 H91        24.9172  -49.1353  -58.1366 H         1 UNK         0.3144 
     92 H92        22.4642  -47.9823  -59.3565 H         1 UNK         0.0727 
     93 H93        22.7099  -45.6287  -60.2154 H         1 UNK         0.0790 
     94 H94        23.6678  -45.2180  -58.7929 H         1 UNK         0.0790 
     95 H95        21.9802  -45.6755  -58.6202 H         1 UNK         0.0790 
     96 H96        24.2238  -48.3779  -60.6337 H         1 UNK         0.3215 
     97 H97        26.1588  -48.2664  -61.6689 H         1 UNK         0.0863 
     98 H98        28.4026  -47.3008  -62.0312 H         1 UNK         0.0808 
     99 H99        28.3667  -46.5221  -60.4481 H         1 UNK         0.0808 
    100 H100       27.2585  -46.0079  -61.7112 H         1 UNK         0.0808 
    101 H101       28.4139  -48.9886  -60.1785 H         1 UNK         0.3118 
    102 H102       27.3552  -51.5718  -58.1467 H         1 UNK         0.0546 
    103 H103       28.3882  -52.1086  -60.9830 H         1 UNK         0.0828 
    104 H104       26.9325  -52.7995  -60.2813 H         1 UNK         0.0828 
    105 H105       28.4995  -53.2115  -59.6098 H         1 UNK         0.0828 
    106 H106       29.9163  -51.1598  -59.2523 H         1 UNK         0.3005 
    107 H107       31.4262  -50.5016  -57.4081 H         1 UNK         0.1257 
    108 H108       31.3658  -49.4024  -59.7032 H         1 UNK         0.0775 
    109 H109       31.1727  -47.8528  -58.9391 H         1 UNK         0.0775 
    110 H110       34.8395  -46.8602  -58.8927 H         1 UNK         0.0840 
    111 H111       33.2912  -46.5772  -59.6436 H         1 UNK         0.0840 
    112 H112       31.2096  -47.7509  -56.4611 H         1 UNK         0.2987 
    113 H113       31.5195  -47.2966  -54.3435 H         1 UNK         0.0785 
    114 H114       29.6533  -47.0783  -52.7498 H         1 UNK         0.0798 
    115 H115       29.1837  -48.7603  -53.0102 H         1 UNK         0.0798 
    116 H116       29.0197  -47.5879  -54.3068 H         1 UNK         0.0798 
    117 H117       31.4446  -48.6386  -51.9073 H         1 UNK         0.3079 
    118 H118       33.2768  -50.0586  -51.0390 H         1 UNK         0.0794 
    119 H119       35.3538  -50.6305  -52.2926 H         1 UNK         0.0786 
    120 H120       35.7306  -50.0401  -50.6832 H         1 UNK         0.0786 
    121 H121       35.9554  -48.9916  -52.0838 H         1 UNK         0.0786 
    122 H122       34.7136  -47.5799  -50.5204 H         1 UNK         0.3032 
    123 H123       32.0720  -45.8694  -48.9919 H         1 UNK         0.1094 
    124 H124       32.4904  -47.5134  -47.1697 H         1 UNK         0.0794 
    125 H125       34.2202  -47.4521  -47.4768 H         1 UNK         0.0794 
    126 H126       33.3729  -46.0246  -46.8787 H         1 UNK         0.0794 
    127 H127       34.9810  -45.6506  -48.9772 H         1 UNK         0.3016 
@<TRIPOS>BOND
     1    1    2 1    
     2    1   67 1    
     3    1   68 1    
     4    1   69 1    
     5    2    3 2    
     6    2    4 am   BACKBONE|DICT|INTERRES
     7    4    5 1    
     8    4   70 1    
     9    5    6 1    
    10    5   65 1    
    11    5   71 1    
    12    6    7 1    
    13    6   72 1    
    14    6   73 1    
    15    7    8 1    
    16    8    9 1    
    17    8   74 1    
    18    8   75 1    
    19    9   10 ar   
    20    9   14 ar   
    21   10   11 ar   
    22   10   76 1    
    23   11   12 ar   
    24   11   48 1    
    25   12   13 ar   
    26   12   77 1    
    27   13   14 ar   
    28   13   15 1    
    29   14   78 1    
    30   15   16 1    
    31   15   79 1    
    32   15   80 1    
    33   16   17 1    
    34   17   18 1    
    35   17   81 1    
    36   17   82 1    
    37   18   19 1    
    38   18   22 1    
    39   18   83 1    
    40   19   20 am   BACKBONE|DICT|INTERRES
    41   19   21 2    
    42   20   84 1    
    43   20   85 1    
    44   22   23 am   BACKBONE|DICT|INTERRES
    45   22   86 1    
    46   23   24 2    
    47   23   25 1    
    48   25   26 1    
    49   25   27 1    
    50   25   87 1    
    51   26   88 1    
    52   26   89 1    
    53   26   90 1    
    54   27   28 am   BACKBONE|DICT|INTERRES
    55   27   91 1    
    56   28   29 2    
    57   28   30 1    
    58   30   31 1    
    59   30   32 1    
    60   30   92 1    
    61   31   93 1    
    62   31   94 1    
    63   31   95 1    
    64   32   33 am   BACKBONE|DICT|INTERRES
    65   32   96 1    
    66   33   34 2    
    67   33   35 1    
    68   35   36 1    
    69   35   37 1    
    70   35   97 1    
    71   36   98 1    
    72   36   99 1    
    73   36  100 1    
    74   37   38 am   BACKBONE|DICT|INTERRES
    75   37  101 1    
    76   38   39 2    
    77   38   40 1    
    78   40   41 1    
    79   40   42 1    
    80   40  102 1    
    81   41  103 1    
    82   41  104 1    
    83   41  105 1    
    84   42   43 am   BACKBONE|DICT|INTERRES
    85   42  106 1    
    86   43   44 2    
    87   43   45 1    
    88   45   46 1    
    89   45   49 1    
    90   45  107 1    
    91   46   47 1    
    92   46  108 1    
    93   46  109 1    
    94   47   48 1    
    95   48  110 1    
    96   48  111 1    
    97   49   50 am   BACKBONE|DICT|INTERRES
    98   49  112 1    
    99   50   51 2    
   100   50   52 1    
   101   52   53 1    
   102   52   54 1    
   103   52  113 1    
   104   53  114 1    
   105   53  115 1    
   106   53  116 1    
   107   54   55 am   BACKBONE|DICT|INTERRES
   108   54  117 1    
   109   55   56 2    
   110   55   57 1    
   111   57   58 1    
   112   57   59 1    
   113   57  118 1    
   114   58  119 1    
   115   58  120 1    
   116   58  121 1    
   117   59   60 am   BACKBONE|DICT|INTERRES
   118   59  122 1    
   119   60   61 2    
   120   60   62 1    
   121   62   63 1    
   122   62   64 1    
   123   62  123 1    
   124   63  124 1    
   125   63  125 1    
   126   63  126 1    
   127   64   65 am   BACKBONE|DICT|INTERRES
   128   64  127 1    
   129   65   66 2    
@<TRIPOS>SUBSTRUCTURE
     1 UNK         1 GROUP             0       ****    0 ROOT    
