@<TRIPOS>MOLECULE
3R134
127   129    1
SMALL
USER_CHARGES


@<TRIPOS>ATOM
      1 CA         34.8960  -43.3886  -53.3987 C.3       0 UNK        -0.1968 
      2 C          34.0854  -44.6690  -53.2742 C.2       0 UNK         0.4852 
      3 O          34.1491  -45.5232  -54.1590 O.2       0 UNK        -0.5359 
      4 N          33.3299  -44.8211  -52.1789 N.am      1 UNK        -0.4300 
      5 CA         32.4069  -45.9327  -51.9075 C.3       1 UNK         0.0863 
      6 C6         31.2955  -45.5285  -50.9004 C.3       11 UNK        -0.0953 
      7 S7         30.4319  -43.9749  -51.3219 S.3       11 UNK        -0.2369 
      8 C8         29.3695  -44.4801  -52.7104 C.3       11 UNK         0.0226 
      9 C9         29.7695  -43.7613  -53.9904 C.ar      11 UNK        -0.0699 
     10 C10        30.6659  -44.3489  -54.8878 C.ar      11 UNK        -0.0804 
     11 C11        31.0785  -43.6662  -56.0362 C.ar      11 UNK        -0.0871 
     12 C12        30.5612  -42.3925  -56.2967 C.ar      11 UNK        -0.1008 
     13 C13        29.6625  -41.7935  -55.4083 C.ar      11 UNK        -0.0735 
     14 C14        29.2667  -42.4856  -54.2602 C.ar      11 UNK        -0.0945 
     15 C15        29.1758  -40.3701  -55.6444 C.3       11 UNK         0.0169 
     16 S16        27.4195  -40.2956  -56.1140 S.3       11 UNK        -0.2669 
     17 C17        27.4590  -40.9059  -57.8344 C.3       11 UNK        -0.0850 
     18 CA         26.4940  -42.0995  -58.0567 C.3       10 UNK         0.0855 
     19 C          26.3561  -42.4488  -59.5699 C.2       10 UNK         0.5543 
     20 N          26.5374  -43.6913  -60.0020 N.am      10 UNK        -0.7343 
     21 O          26.0667  -41.5674  -60.3755 O.2       10 UNK        -0.5027 
     22 N          26.8401  -43.2410  -57.1960 N.am      10 UNK        -0.4495 
     23 C          25.9772  -44.1778  -56.7936 C.2       10 UNK         0.4903 
     24 O          24.7642  -44.1501  -57.0141 O.2       10 UNK        -0.4860 
     25 CA         26.5811  -45.3559  -56.0134 C.3       9 UNK         0.0227 
     26 CB         26.1965  -45.2697  -54.5278 C.3       9 UNK        -0.1964 
     27 N          26.1729  -46.6581  -56.5502 N.am      9 UNK        -0.4231 
     28 C          26.3207  -47.0643  -57.8221 C.2       9 UNK         0.5014 
     29 O          26.7808  -46.3606  -58.7249 O.2       9 UNK        -0.5270 
     30 CA         25.9369  -48.5242  -58.1081 C.3       8 UNK         0.0284 
     31 CB         26.2569  -48.9704  -59.5486 C.3       8 UNK        -0.1977 
     32 N          26.6322  -49.3888  -57.1566 N.am      8 UNK        -0.4342 
     33 C          26.1393  -50.5162  -56.6270 C.2       8 UNK         0.5039 
     34 O          25.0432  -50.9872  -56.9344 O.2       8 UNK        -0.5547 
     35 CA         26.9914  -51.2506  -55.5694 C.3       7 UNK         0.0281 
     36 CB         27.6700  -52.4834  -56.1880 C.3       7 UNK        -0.1963 
     37 N          28.0149  -50.4174  -54.9333 N.am      7 UNK        -0.4444 
     38 C          27.7761  -49.3337  -54.1825 C.2       7 UNK         0.5104 
     39 O          26.6492  -48.9506  -53.8684 O.2       7 UNK        -0.5100 
     40 CA         28.9981  -48.4988  -53.7601 C.3       6 UNK         0.0396 
     41 CB         29.4453  -48.8815  -52.3420 C.3       6 UNK        -0.1801 
     42 N          30.1370  -48.5843  -54.6856 N.am      6 UNK        -0.4747 
     43 C          30.1024  -48.2088  -55.9755 C.2       6 UNK         0.5012 
     44 O          29.0860  -47.7985  -56.5277 O.2       6 UNK        -0.5003 
     45 CA         31.3923  -48.3678  -56.8029 C.3       5 UNK         0.0782 
     46 C46        32.2638  -47.0897  -56.7768 C.3       11 UNK        -0.0868 
     47 S47        31.5759  -45.7588  -57.8248 S.3       11 UNK        -0.2515 
     48 C48        32.1395  -44.2613  -56.9565 C.3       11 UNK         0.0199 
     49 N          32.1427  -49.5567  -56.3893 N.am      5 UNK        -0.4607 
     50 C          31.7885  -50.8056  -56.7229 C.2       4 UNK         0.5031 
     51 O          30.8436  -51.0757  -57.4634 O.2       4 UNK        -0.5119 
     52 CA         32.6042  -51.9445  -56.0949 C.3       4 UNK         0.0263 
     53 CB         33.9437  -52.1278  -56.8260 C.3       4 UNK        -0.1967 
     54 N          32.8469  -51.7494  -54.6638 N.am      4 UNK        -0.4237 
     55 C          31.9057  -51.7134  -53.7126 C.2       3 UNK         0.4908 
     56 O          30.6991  -51.7920  -53.9441 O.2       3 UNK        -0.5102 
     57 CA         32.3832  -51.5560  -52.2571 C.3       3 UNK         0.0241 
     58 CB         33.0616  -52.8452  -51.7533 C.3       3 UNK        -0.1971 
     59 N          33.2216  -50.3739  -52.0038 N.am      3 UNK        -0.4139 
     60 C          34.4369  -50.0751  -52.4853 C.2       2 UNK         0.5016 
     61 O          35.0455  -50.7782  -53.2950 O.2       2 UNK        -0.5319 
     62 CA         35.0629  -48.7566  -51.9879 C.3       2 UNK         0.0286 
     63 CB         36.4357  -48.4755  -52.6276 C.3       2 UNK        -0.1963 
     64 N          34.1959  -47.5991  -52.2245 N.am      2 UNK        -0.4790 
     65 C          33.1378  -47.2329  -51.4912 C.2       1 UNK         0.5024 
     66 O          32.7346  -47.8950  -50.5332 O.2       1 UNK        -0.4888 
     67 H67        35.9556  -43.6232  -53.4951 H         1 UNK         0.0892 
     68 H68        34.5856  -42.8370  -54.2857 H         1 UNK         0.0892 
     69 H69        34.7682  -42.7391  -52.5330 H         1 UNK         0.0892 
     70 H70        33.3326  -44.0931  -51.4786 H         1 UNK         0.3107 
     71 H71        31.9089  -46.1838  -52.8432 H         1 UNK         0.0773 
     72 H72        30.5490  -46.3180  -50.8022 H         1 UNK         0.0680 
     73 H73        31.7234  -45.3977  -49.9047 H         1 UNK         0.0680 
     74 H74        29.4199  -45.5583  -52.8489 H         1 UNK         0.0650 
     75 H75        28.3329  -44.2510  -52.4604 H         1 UNK         0.0650 
     76 H76        31.0634  -45.3290  -54.6818 H         1 UNK         0.1397 
     77 H77        30.8884  -41.8489  -57.1727 H         1 UNK         0.1363 
     78 H78        28.5861  -42.0176  -53.5620 H         1 UNK         0.1355 
     79 H79        29.3139  -39.7943  -54.7280 H         1 UNK         0.0707 
     80 H80        29.7769  -39.8706  -56.4060 H         1 UNK         0.0707 
     81 H81        27.1876  -40.0669  -58.4781 H         1 UNK         0.1034 
     82 H82        28.4759  -41.1824  -58.1172 H         1 UNK         0.1034 
     83 H83        25.5007  -41.7581  -57.7585 H         1 UNK         0.0482 
     84 H84        26.4384  -43.8839  -60.9855 H         1 UNK         0.3460 
     85 H85        26.7290  -44.4561  -59.3628 H         1 UNK         0.3460 
     86 H86        27.8176  -43.3377  -56.9610 H         1 UNK         0.2989 
     87 H87        27.6701  -45.3072  -56.0867 H         1 UNK         0.0559 
     88 H88        26.4856  -44.3057  -54.1076 H         1 UNK         0.0848 
     89 H89        26.6918  -46.0421  -53.9402 H         1 UNK         0.0848 
     90 H90        25.1206  -45.3763  -54.3840 H         1 UNK         0.0848 
     91 H91        25.7959  -47.3173  -55.8841 H         1 UNK         0.3144 
     92 H92        24.8583  -48.5981  -57.9543 H         1 UNK         0.0727 
     93 H93        27.3256  -48.9093  -59.7581 H         1 UNK         0.0790 
     94 H94        25.7425  -48.3416  -60.2764 H         1 UNK         0.0790 
     95 H95        25.9383  -49.9977  -59.7257 H         1 UNK         0.0790 
     96 H96        27.5325  -49.0379  -56.8375 H         1 UNK         0.3215 
     97 H97        26.3106  -51.5898  -54.7858 H         1 UNK         0.0863 
     98 H98        28.2275  -53.0482  -55.4403 H         1 UNK         0.0808 
     99 H99        28.3631  -52.2042  -56.9825 H         1 UNK         0.0808 
    100 H100       26.9320  -53.1596  -56.6217 H         1 UNK         0.0808 
    101 H101       28.9802  -50.6815  -55.0883 H         1 UNK         0.3118 
    102 H102       28.6768  -47.4577  -53.7498 H         1 UNK         0.0546 
    103 H103       29.6652  -49.9455  -52.2622 H         1 UNK         0.0828 
    104 H104       28.6599  -48.6619  -51.6176 H         1 UNK         0.0828 
    105 H105       30.3318  -48.3310  -52.0350 H         1 UNK         0.0828 
    106 H106       30.9914  -48.9789  -54.3237 H         1 UNK         0.3005 
    107 H107       31.0790  -48.5286  -57.8381 H         1 UNK         0.1257 
    108 H108       32.4205  -46.7429  -55.7557 H         1 UNK         0.0775 
    109 H109       33.2584  -47.3109  -57.1675 H         1 UNK         0.0775 
    110 H110       33.0435  -44.4751  -56.3854 H         1 UNK         0.0840 
    111 H111       32.4354  -43.5306  -57.7107 H         1 UNK         0.0840 
    112 H112       32.9453  -49.4170  -55.7933 H         1 UNK         0.2987 
    113 H113       32.0254  -52.8638  -56.2085 H         1 UNK         0.0785 
    114 H114       33.7880  -52.2805  -57.8950 H         1 UNK         0.0798 
    115 H115       34.4824  -52.9983  -56.4510 H         1 UNK         0.0798 
    116 H116       34.5922  -51.2585  -56.7102 H         1 UNK         0.0798 
    117 H117       33.8099  -51.6078  -54.3622 H         1 UNK         0.3079 
    118 H118       31.4874  -51.4129  -51.6512 H         1 UNK         0.0794 
    119 H119       33.3040  -52.7750  -50.6929 H         1 UNK         0.0786 
    120 H120       33.9840  -53.0640  -52.2921 H         1 UNK         0.0786 
    121 H121       32.4027  -53.7058  -51.8776 H         1 UNK         0.0786 
    122 H122       32.8264  -49.6932  -51.3609 H         1 UNK         0.3032 
    123 H123       35.2153  -48.8663  -50.9116 H         1 UNK         0.1094 
    124 H124       36.3590  -48.3522  -53.7087 H         1 UNK         0.0794 
    125 H125       36.8859  -47.5708  -52.2186 H         1 UNK         0.0794 
    126 H126       37.1318  -49.2943  -52.4397 H         1 UNK         0.0794 
    127 H127       34.4211  -47.0105  -53.0239 H         1 UNK         0.3016 
@<TRIPOS>BOND
     1    1    2 1    
     2    1   67 1    
     3    1   68 1    
     4    1   69 1    
     5    2    3 2    
     6    2    4 am   BACKBONE|DICT|INTERRES
     7    4    5 1    
     8    4   70 1    
     9    5    6 1    
    10    5   65 1    
    11    5   71 1    
    12    6    7 1    
    13    6   72 1    
    14    6   73 1    
    15    7    8 1    
    16    8    9 1    
    17    8   74 1    
    18    8   75 1    
    19    9   10 ar   
    20    9   14 ar   
    21   10   11 ar   
    22   10   76 1    
    23   11   12 ar   
    24   11   48 1    
    25   12   13 ar   
    26   12   77 1    
    27   13   14 ar   
    28   13   15 1    
    29   14   78 1    
    30   15   16 1    
    31   15   79 1    
    32   15   80 1    
    33   16   17 1    
    34   17   18 1    
    35   17   81 1    
    36   17   82 1    
    37   18   19 1    
    38   18   22 1    
    39   18   83 1    
    40   19   20 am   BACKBONE|DICT|INTERRES
    41   19   21 2    
    42   20   84 1    
    43   20   85 1    
    44   22   23 am   BACKBONE|DICT|INTERRES
    45   22   86 1    
    46   23   24 2    
    47   23   25 1    
    48   25   26 1    
    49   25   27 1    
    50   25   87 1    
    51   26   88 1    
    52   26   89 1    
    53   26   90 1    
    54   27   28 am   BACKBONE|DICT|INTERRES
    55   27   91 1    
    56   28   29 2    
    57   28   30 1    
    58   30   31 1    
    59   30   32 1    
    60   30   92 1    
    61   31   93 1    
    62   31   94 1    
    63   31   95 1    
    64   32   33 am   BACKBONE|DICT|INTERRES
    65   32   96 1    
    66   33   34 2    
    67   33   35 1    
    68   35   36 1    
    69   35   37 1    
    70   35   97 1    
    71   36   98 1    
    72   36   99 1    
    73   36  100 1    
    74   37   38 am   BACKBONE|DICT|INTERRES
    75   37  101 1    
    76   38   39 2    
    77   38   40 1    
    78   40   41 1    
    79   40   42 1    
    80   40  102 1    
    81   41  103 1    
    82   41  104 1    
    83   41  105 1    
    84   42   43 am   BACKBONE|DICT|INTERRES
    85   42  106 1    
    86   43   44 2    
    87   43   45 1    
    88   45   46 1    
    89   45   49 1    
    90   45  107 1    
    91   46   47 1    
    92   46  108 1    
    93   46  109 1    
    94   47   48 1    
    95   48  110 1    
    96   48  111 1    
    97   49   50 am   BACKBONE|DICT|INTERRES
    98   49  112 1    
    99   50   51 2    
   100   50   52 1    
   101   52   53 1    
   102   52   54 1    
   103   52  113 1    
   104   53  114 1    
   105   53  115 1    
   106   53  116 1    
   107   54   55 am   BACKBONE|DICT|INTERRES
   108   54  117 1    
   109   55   56 2    
   110   55   57 1    
   111   57   58 1    
   112   57   59 1    
   113   57  118 1    
   114   58  119 1    
   115   58  120 1    
   116   58  121 1    
   117   59   60 am   BACKBONE|DICT|INTERRES
   118   59  122 1    
   119   60   61 2    
   120   60   62 1    
   121   62   63 1    
   122   62   64 1    
   123   62  123 1    
   124   63  124 1    
   125   63  125 1    
   126   63  126 1    
   127   64   65 am   BACKBONE|DICT|INTERRES
   128   64  127 1    
   129   65   66 2    
@<TRIPOS>SUBSTRUCTURE
     1 UNK         1 GROUP             0       ****    0 ROOT    
