@<TRIPOS>MOLECULE
3R134
127   129    1
SMALL
USER_CHARGES


@<TRIPOS>ATOM
      1 CA         30.0769  -46.4321  -49.4295 C.3       0 UNK        -0.1968 
      2 C          31.5137  -45.9736  -49.6336 C.2       0 UNK         0.4852 
      3 O          32.3716  -46.2638  -48.7987 O.2       0 UNK        -0.5359 
      4 N          31.7780  -45.2598  -50.7368 N.am      1 UNK        -0.4300 
      5 CA         33.1062  -44.7827  -51.1444 C.3       1 UNK         0.0863 
      6 C6         32.9772  -43.7748  -52.3123 C.3       11 UNK        -0.0953 
      7 S7         34.4996  -42.8265  -52.6480 S.3       11 UNK        -0.2369 
      8 C8         33.8638  -41.4657  -53.6880 C.3       11 UNK         0.0226 
      9 C9         32.9725  -41.9487  -54.8280 C.ar      11 UNK        -0.0699 
     10 C10        33.4215  -42.9381  -55.7104 C.ar      11 UNK        -0.0804 
     11 C11        32.5759  -43.4363  -56.7050 C.ar      11 UNK        -0.0871 
     12 C12        31.3001  -42.8929  -56.8573 C.ar      11 UNK        -0.1008 
     13 C13        30.8421  -41.8979  -55.9929 C.ar      11 UNK        -0.0735 
     14 C14        31.6808  -41.4292  -54.9771 C.ar      11 UNK        -0.0945 
     15 C15        29.4321  -41.3575  -56.1605 C.3       11 UNK         0.0169 
     16 S16        28.1981  -42.5576  -55.5590 S.3       11 UNK        -0.2669 
     17 C17        26.8785  -42.3854  -56.8146 C.3       11 UNK        -0.0850 
     18 CA         26.7652  -43.5853  -57.7996 C.3       10 UNK         0.0855 
     19 C          28.0143  -43.7941  -58.6961 C.2       10 UNK         0.5543 
     20 N          28.3417  -42.8220  -59.5367 N.am      10 UNK        -0.7343 
     21 O          28.6902  -44.8201  -58.6418 O.2       10 UNK        -0.5027 
     22 N          26.3743  -44.8304  -57.1318 N.am      10 UNK        -0.4495 
     23 C          25.1253  -45.1588  -56.7872 C.2       10 UNK         0.4903 
     24 O          24.1589  -44.4046  -56.9151 O.2       10 UNK        -0.4860 
     25 CA         24.9298  -46.5766  -56.2202 C.3       9 UNK         0.0227 
     26 CB         23.4480  -46.9896  -56.0967 C.3       9 UNK        -0.1964 
     27 N          25.6965  -47.5801  -56.9647 N.am      9 UNK        -0.4231 
     28 C          25.5802  -47.9282  -58.2552 C.2       9 UNK         0.5014 
     29 O          24.7407  -47.4634  -59.0275 O.2       9 UNK        -0.5270 
     30 CA         26.5815  -48.9746  -58.7819 C.3       8 UNK         0.0284 
     31 CB         27.7579  -48.2785  -59.4853 C.3       8 UNK        -0.1977 
     32 N          27.1000  -49.8602  -57.7340 N.am      8 UNK        -0.4342 
     33 C          26.3716  -50.7857  -57.0926 C.2       8 UNK         0.5039 
     34 O          25.2091  -51.0675  -57.3864 O.2       8 UNK        -0.5547 
     35 CA         27.0384  -51.4927  -55.9005 C.3       7 UNK         0.0281 
     36 CB         27.9296  -52.6491  -56.3807 C.3       7 UNK        -0.1963 
     37 N          27.8135  -50.5751  -55.0585 N.am      7 UNK        -0.4444 
     38 C          27.2834  -49.5780  -54.3333 C.2       7 UNK         0.5104 
     39 O          26.0754  -49.3596  -54.2493 O.2       7 UNK        -0.5100 
     40 CA         28.2607  -48.6382  -53.6076 C.3       6 UNK         0.0396 
     41 CB         28.7179  -49.2474  -52.2733 C.3       6 UNK        -0.1801 
     42 N          29.4299  -48.3030  -54.4203 N.am      6 UNK        -0.4747 
     43 C          29.4037  -47.5880  -55.5552 C.2       6 UNK         0.5012 
     44 O          28.3844  -47.0750  -56.0165 O.2       6 UNK        -0.5003 
     45 CA         30.7338  -47.4703  -56.3249 C.3       5 UNK         0.0782 
     46 C46        31.6016  -46.3274  -55.7493 C.3       11 UNK        -0.0868 
     47 S47        33.2070  -46.1398  -56.6094 S.3       11 UNK        -0.2515 
     48 C48        33.0044  -44.6066  -57.5767 C.3       11 UNK         0.0199 
     49 N          31.4474  -48.7499  -56.3440 N.am      5 UNK        -0.4607 
     50 C          31.0323  -49.8496  -56.9834 C.2       4 UNK         0.5031 
     51 O          29.9924  -49.9108  -57.6383 O.2       4 UNK        -0.5119 
     52 CA         31.9124  -51.1010  -56.8341 C.3       4 UNK         0.0263 
     53 CB         33.0887  -51.0554  -57.8221 C.3       4 UNK        -0.1967 
     54 N          32.4198  -51.2733  -55.4695 N.am      4 UNK        -0.4237 
     55 C          31.6456  -51.5430  -54.4086 C.2       3 UNK         0.4908 
     56 O          30.4268  -51.6992  -54.4720 O.2       3 UNK        -0.5102 
     57 CA         32.3411  -51.6058  -53.0383 C.3       3 UNK         0.0241 
     58 CB         33.0207  -52.9697  -52.8356 C.3       3 UNK        -0.1971 
     59 N          33.3118  -50.5275  -52.8119 N.am      3 UNK        -0.4139 
     60 C          33.0145  -49.2217  -52.8424 C.2       2 UNK         0.5016 
     61 O          31.9008  -48.7774  -53.1364 O.2       2 UNK        -0.5319 
     62 CA         34.1429  -48.2408  -52.5075 C.3       2 UNK         0.0286 
     63 CB         35.1040  -48.0687  -53.6976 C.3       2 UNK        -0.1963 
     64 N          33.5121  -46.9699  -52.1704 N.am      2 UNK        -0.4790 
     65 C          34.0546  -45.9550  -51.4901 C.2       1 UNK         0.5024 
     66 O          35.2254  -45.9365  -51.1069 O.2       1 UNK        -0.4888 
     67 H67        29.6713  -45.9996  -48.5153 H         1 UNK         0.0892 
     68 H68        29.4321  -46.1402  -50.2584 H         1 UNK         0.0892 
     69 H69        30.0396  -47.5174  -49.3388 H         1 UNK         0.0892 
     70 H70        31.0226  -45.0409  -51.3702 H         1 UNK         0.3107 
     71 H71        33.5350  -44.2580  -50.2877 H         1 UNK         0.0773 
     72 H72        32.1910  -43.0521  -52.0869 H         1 UNK         0.0680 
     73 H73        32.6664  -44.2840  -53.2269 H         1 UNK         0.0680 
     74 H74        34.7079  -40.9149  -54.1047 H         1 UNK         0.0650 
     75 H75        33.3245  -40.7668  -53.0468 H         1 UNK         0.0650 
     76 H76        34.4084  -43.3627  -55.5858 H         1 UNK         0.1397 
     77 H77        30.6425  -43.2751  -57.6246 H         1 UNK         0.1363 
     78 H78        31.3221  -40.6702  -54.2953 H         1 UNK         0.1355 
     79 H79        29.2711  -41.1355  -57.2162 H         1 UNK         0.0707 
     80 H80        29.3075  -40.4150  -55.6251 H         1 UNK         0.0707 
     81 H81        25.9334  -42.2660  -56.2831 H         1 UNK         0.1034 
     82 H82        27.0038  -41.4525  -57.3656 H         1 UNK         0.1034 
     83 H83        25.9641  -43.3502  -58.5035 H         1 UNK         0.0482 
     84 H84        29.1452  -42.9443  -60.1323 H         1 UNK         0.3460 
     85 H85        27.7889  -41.9829  -59.6115 H         1 UNK         0.3460 
     86 H86        27.1240  -45.5042  -57.0104 H         1 UNK         0.2989 
     87 H87        25.3523  -46.5629  -55.2145 H         1 UNK         0.0559 
     88 H88        22.9068  -46.3091  -55.4384 H         1 UNK         0.0848 
     89 H89        23.3519  -47.9911  -55.6769 H         1 UNK         0.0848 
     90 H90        22.9411  -46.9795  -57.0620 H         1 UNK         0.0848 
     91 H91        26.4806  -47.9721  -56.4570 H         1 UNK         0.3144 
     92 H92        26.0589  -49.5902  -59.5169 H         1 UNK         0.0727 
     93 H93        28.3305  -47.6588  -58.7941 H         1 UNK         0.0790 
     94 H94        27.4060  -47.6288  -60.2878 H         1 UNK         0.0790 
     95 H95        28.4410  -49.0030  -59.9290 H         1 UNK         0.0790 
     96 H96        28.0837  -49.7579  -57.4930 H         1 UNK         0.3215 
     97 H97        26.2429  -51.9147  -55.2825 H         1 UNK         0.0863 
     98 H98        28.3356  -53.2116  -55.5397 H         1 UNK         0.0808 
     99 H99        28.7675  -52.2932  -56.9803 H         1 UNK         0.0808 
    100 H100       27.3626  -53.3497  -56.9951 H         1 UNK         0.0808 
    101 H101       28.8161  -50.7366  -55.0078 H         1 UNK         0.3118 
    102 H102       27.7305  -47.7083  -53.3912 H         1 UNK         0.0546 
    103 H103       29.2722  -50.1747  -52.4215 H         1 UNK         0.0828 
    104 H104       27.8640  -49.4744  -51.6338 H         1 UNK         0.0828 
    105 H105       29.3621  -48.5603  -51.7248 H         1 UNK         0.0828 
    106 H106       30.3291  -48.6428  -54.0820 H         1 UNK         0.3005 
    107 H107       30.4822  -47.2149  -57.3572 H         1 UNK         0.1257 
    108 H108       31.0437  -45.3917  -55.7773 H         1 UNK         0.0775 
    109 H109       31.8198  -46.5070  -54.6955 H         1 UNK         0.0775 
    110 H110       33.9486  -44.3661  -58.0669 H         1 UNK         0.0840 
    111 H111       32.2804  -44.7866  -58.3733 H         1 UNK         0.0840 
    112 H112       32.2993  -48.7893  -55.8059 H         1 UNK         0.2987 
    113 H113       31.2967  -51.9697  -57.0769 H         1 UNK         0.0785 
    114 H114       32.7313  -50.9453  -58.8470 H         1 UNK         0.0798 
    115 H115       33.6758  -51.9731  -57.7828 H         1 UNK         0.0798 
    116 H116       33.7582  -50.2183  -57.6194 H         1 UNK         0.0798 
    117 H117       33.4126  -51.1589  -55.3269 H         1 UNK         0.3079 
    118 H118       31.5626  -51.5019  -52.2793 H         1 UNK         0.0794 
    119 H119       33.4144  -53.0704  -51.8239 H         1 UNK         0.0786 
    120 H120       33.8450  -53.1213  -53.5336 H         1 UNK         0.0786 
    121 H121       32.3115  -53.7850  -52.9866 H         1 UNK         0.0786 
    122 H122       34.2517  -50.8083  -52.5709 H         1 UNK         0.3032 
    123 H123       34.6863  -48.6114  -51.6354 H         1 UNK         0.1094 
    124 H124       34.5810  -47.7249  -54.5890 H         1 UNK         0.0794 
    125 H125       35.8906  -47.3475  -53.4755 H         1 UNK         0.0794 
    126 H126       35.5937  -49.0101  -53.9488 H         1 UNK         0.0794 
    127 H127       32.5267  -46.9453  -52.4047 H         1 UNK         0.3016 
@<TRIPOS>BOND
     1    1    2 1    
     2    1   67 1    
     3    1   68 1    
     4    1   69 1    
     5    2    3 2    
     6    2    4 am   BACKBONE|DICT|INTERRES
     7    4    5 1    
     8    4   70 1    
     9    5    6 1    
    10    5   65 1    
    11    5   71 1    
    12    6    7 1    
    13    6   72 1    
    14    6   73 1    
    15    7    8 1    
    16    8    9 1    
    17    8   74 1    
    18    8   75 1    
    19    9   10 ar   
    20    9   14 ar   
    21   10   11 ar   
    22   10   76 1    
    23   11   12 ar   
    24   11   48 1    
    25   12   13 ar   
    26   12   77 1    
    27   13   14 ar   
    28   13   15 1    
    29   14   78 1    
    30   15   16 1    
    31   15   79 1    
    32   15   80 1    
    33   16   17 1    
    34   17   18 1    
    35   17   81 1    
    36   17   82 1    
    37   18   19 1    
    38   18   22 1    
    39   18   83 1    
    40   19   20 am   BACKBONE|DICT|INTERRES
    41   19   21 2    
    42   20   84 1    
    43   20   85 1    
    44   22   23 am   BACKBONE|DICT|INTERRES
    45   22   86 1    
    46   23   24 2    
    47   23   25 1    
    48   25   26 1    
    49   25   27 1    
    50   25   87 1    
    51   26   88 1    
    52   26   89 1    
    53   26   90 1    
    54   27   28 am   BACKBONE|DICT|INTERRES
    55   27   91 1    
    56   28   29 2    
    57   28   30 1    
    58   30   31 1    
    59   30   32 1    
    60   30   92 1    
    61   31   93 1    
    62   31   94 1    
    63   31   95 1    
    64   32   33 am   BACKBONE|DICT|INTERRES
    65   32   96 1    
    66   33   34 2    
    67   33   35 1    
    68   35   36 1    
    69   35   37 1    
    70   35   97 1    
    71   36   98 1    
    72   36   99 1    
    73   36  100 1    
    74   37   38 am   BACKBONE|DICT|INTERRES
    75   37  101 1    
    76   38   39 2    
    77   38   40 1    
    78   40   41 1    
    79   40   42 1    
    80   40  102 1    
    81   41  103 1    
    82   41  104 1    
    83   41  105 1    
    84   42   43 am   BACKBONE|DICT|INTERRES
    85   42  106 1    
    86   43   44 2    
    87   43   45 1    
    88   45   46 1    
    89   45   49 1    
    90   45  107 1    
    91   46   47 1    
    92   46  108 1    
    93   46  109 1    
    94   47   48 1    
    95   48  110 1    
    96   48  111 1    
    97   49   50 am   BACKBONE|DICT|INTERRES
    98   49  112 1    
    99   50   51 2    
   100   50   52 1    
   101   52   53 1    
   102   52   54 1    
   103   52  113 1    
   104   53  114 1    
   105   53  115 1    
   106   53  116 1    
   107   54   55 am   BACKBONE|DICT|INTERRES
   108   54  117 1    
   109   55   56 2    
   110   55   57 1    
   111   57   58 1    
   112   57   59 1    
   113   57  118 1    
   114   58  119 1    
   115   58  120 1    
   116   58  121 1    
   117   59   60 am   BACKBONE|DICT|INTERRES
   118   59  122 1    
   119   60   61 2    
   120   60   62 1    
   121   62   63 1    
   122   62   64 1    
   123   62  123 1    
   124   63  124 1    
   125   63  125 1    
   126   63  126 1    
   127   64   65 am   BACKBONE|DICT|INTERRES
   128   64  127 1    
   129   65   66 2    
@<TRIPOS>SUBSTRUCTURE
     1 UNK         1 GROUP             0       ****    0 ROOT    
