@<TRIPOS>MOLECULE
3R134
127   129    1
SMALL
USER_CHARGES


@<TRIPOS>ATOM
      1 CA         38.9576  -46.5142  -52.6510 C.3       0 UNK        -0.1968 
      2 C          37.5165  -46.9073  -52.9389 C.2       0 UNK         0.4852 
      3 O          37.2695  -48.0003  -53.4526 O.2       0 UNK        -0.5359 
      4 N          36.5577  -46.0353  -52.5999 N.am      1 UNK        -0.4300 
      5 CA         35.1148  -46.2096  -52.8179 C.3       1 UNK         0.0863 
      6 C6         34.3800  -44.8453  -52.8794 C.3       11 UNK        -0.0953 
      7 S7         34.9015  -43.8620  -54.3226 S.3       11 UNK        -0.2369 
      8 C8         33.9404  -42.3360  -54.0840 C.3       11 UNK         0.0226 
      9 C9         32.4600  -42.5287  -54.3844 C.ar      11 UNK        -0.0699 
     10 C10        31.5477  -42.7234  -53.3414 C.ar      11 UNK        -0.0804 
     11 C11        30.1806  -42.8540  -53.6065 C.ar      11 UNK        -0.0871 
     12 C12        29.7327  -42.7825  -54.9282 C.ar      11 UNK        -0.1008 
     13 C13        30.6353  -42.6283  -55.9820 C.ar      11 UNK        -0.0735 
     14 C14        31.9991  -42.4897  -55.7053 C.ar      11 UNK        -0.0945 
     15 C15        30.1195  -42.6427  -57.4122 C.3       11 UNK         0.0169 
     16 S16        29.6712  -44.3373  -57.9000 S.3       11 UNK        -0.2669 
     17 C17        28.7333  -44.0461  -59.4351 C.3       11 UNK        -0.0850 
     18 CA         27.1978  -43.9482  -59.2185 C.3       10 UNK         0.0855 
     19 C          26.4867  -43.7317  -60.5878 C.2       10 UNK         0.5543 
     20 N          25.7813  -44.7165  -61.1347 N.am      10 UNK        -0.7343 
     21 O          26.5826  -42.6502  -61.1621 O.2       10 UNK        -0.5027 
     22 N          26.6706  -45.0795  -58.4374 N.am      10 UNK        -0.4495 
     23 C          25.4321  -45.1580  -57.9296 C.2       10 UNK         0.4903 
     24 O          24.6432  -44.2123  -57.9183 O.2       10 UNK        -0.4860 
     25 CA         24.9931  -46.5180  -57.3398 C.3       9 UNK         0.0227 
     26 CB         23.5065  -46.8190  -57.6259 C.3       9 UNK        -0.1964 
     27 N          25.8385  -47.6538  -57.7458 N.am      9 UNK        -0.4231 
     28 C          26.0515  -48.0971  -58.9959 C.2       9 UNK         0.5014 
     29 O          25.5368  -47.5922  -59.9956 O.2       9 UNK        -0.5270 
     30 CA         27.0504  -49.2499  -59.1821 C.3       8 UNK         0.0284 
     31 CB         28.2967  -48.7439  -59.9309 C.3       8 UNK        -0.1977 
     32 N          27.4889  -49.8415  -57.9151 N.am      8 UNK        -0.4342 
     33 C          27.0709  -51.0143  -57.4254 C.2       8 UNK         0.5039 
     34 O          26.1766  -51.6909  -57.9345 O.2       8 UNK        -0.5547 
     35 CA         27.7887  -51.5365  -56.1733 C.3       7 UNK         0.0281 
     36 CB         29.2490  -51.8986  -56.4946 C.3       7 UNK        -0.1963 
     37 N          27.7648  -50.5690  -55.0728 N.am      7 UNK        -0.4444 
     38 C          27.2377  -50.8114  -53.8631 C.2       7 UNK         0.5104 
     39 O          26.6483  -51.8534  -53.5726 O.2       7 UNK        -0.5100 
     40 CA         27.4074  -49.7394  -52.7682 C.3       6 UNK         0.0396 
     41 CB         28.3767  -50.2307  -51.6800 C.3       6 UNK        -0.1801 
     42 N          27.8701  -48.4465  -53.2789 N.am      6 UNK        -0.4747 
     43 C          27.0694  -47.5503  -53.8737 C.2       6 UNK         0.5012 
     44 O          25.8601  -47.7238  -54.0257 O.2       6 UNK        -0.5003 
     45 CA         27.7078  -46.2608  -54.4347 C.3       5 UNK         0.0782 
     46 C46        27.4609  -45.0535  -53.4887 C.3       11 UNK        -0.0868 
     47 S47        28.7462  -44.7967  -52.2109 S.3       11 UNK        -0.2515 
     48 C48        29.1901  -43.0448  -52.4645 C.3       11 UNK         0.0199 
     49 N          29.1114  -46.4081  -54.8350 N.am      5 UNK        -0.4607 
     50 C          29.5846  -47.2960  -55.7188 C.2       4 UNK         0.5031 
     51 O          28.8684  -48.0844  -56.3380 O.2       4 UNK        -0.5119 
     52 CA         31.1096  -47.3780  -55.9097 C.3       4 UNK         0.0263 
     53 CB         31.8862  -46.2172  -55.2535 C.3       4 UNK        -0.1967 
     54 N          31.6438  -48.6625  -55.4392 N.am      4 UNK        -0.4237 
     55 C          31.5055  -49.1847  -54.2100 C.2       3 UNK         0.4908 
     56 O          30.8350  -48.6636  -53.3181 O.2       3 UNK        -0.5102 
     57 CA         32.2712  -50.4816  -53.8984 C.3       3 UNK         0.0241 
     58 CB         32.8560  -51.1913  -55.1377 C.3       3 UNK        -0.1971 
     59 N          33.3641  -50.1336  -52.9961 N.am      3 UNK        -0.4139 
     60 C          33.3275  -50.1880  -51.6579 C.2       2 UNK         0.5016 
     61 O          32.4262  -50.7183  -51.0073 O.2       2 UNK        -0.5319 
     62 CA         34.5017  -49.5158  -50.9228 C.3       2 UNK         0.0286 
     63 CB         35.6188  -50.5322  -50.6372 C.3       2 UNK        -0.1963 
     64 N          35.0531  -48.3924  -51.6886 N.am      2 UNK        -0.4790 
     65 C          34.4842  -47.1835  -51.7938 C.2       1 UNK         0.5024 
     66 O          33.5054  -46.8410  -51.1291 O.2       1 UNK        -0.4888 
     67 H67        39.5348  -46.5056  -53.5752 H         1 UNK         0.0892 
     68 H68        39.0281  -45.5253  -52.1982 H         1 UNK         0.0892 
     69 H69        39.4136  -47.2327  -51.9705 H         1 UNK         0.0892 
     70 H70        36.8217  -45.1630  -52.1645 H         1 UNK         0.3107 
     71 H71        34.9795  -46.6873  -53.7911 H         1 UNK         0.0773 
     72 H72        33.3016  -44.9868  -52.9514 H         1 UNK         0.0680 
     73 H73        34.5540  -44.2698  -51.9684 H         1 UNK         0.0680 
     74 H74        34.0841  -41.9709  -53.0659 H         1 UNK         0.0650 
     75 H75        34.3440  -41.5644  -54.7413 H         1 UNK         0.0650 
     76 H76        31.9025  -42.7638  -52.3205 H         1 UNK         0.1397 
     77 H77        28.6809  -42.8638  -55.1556 H         1 UNK         0.1363 
     78 H78        32.7038  -42.3614  -56.5155 H         1 UNK         0.1355 
     79 H79        29.2457  -41.9939  -57.4904 H         1 UNK         0.0707 
     80 H80        30.8678  -42.2499  -58.1023 H         1 UNK         0.0707 
     81 H81        29.1117  -43.1418  -59.9163 H         1 UNK         0.1034 
     82 H82        28.9643  -44.8652  -60.1192 H         1 UNK         0.1034 
     83 H83        27.0089  -43.0481  -58.6302 H         1 UNK         0.0482 
     84 H84        25.7016  -45.6171  -60.6760 H         1 UNK         0.3460 
     85 H85        25.3257  -44.5634  -62.0200 H         1 UNK         0.3460 
     86 H86        27.2637  -45.8933  -58.3891 H         1 UNK         0.2989 
     87 H87        25.0937  -46.4259  -56.2595 H         1 UNK         0.0559 
     88 H88        23.2964  -46.8500  -58.6954 H         1 UNK         0.0848 
     89 H89        22.8603  -46.0550  -57.1920 H         1 UNK         0.0848 
     90 H90        23.2054  -47.7745  -57.1966 H         1 UNK         0.0848 
     91 H91        26.3218  -48.1332  -56.9993 H         1 UNK         0.3144 
     92 H92        26.5622  -50.0041  -59.8027 H         1 UNK         0.0727 
     93 H93        28.9983  -49.5558  -60.1232 H         1 UNK         0.0790 
     94 H94        28.8240  -47.9735  -59.3659 H         1 UNK         0.0790 
     95 H95        28.0292  -48.3149  -60.8977 H         1 UNK         0.0790 
     96 H96        28.1893  -49.3101  -57.3977 H         1 UNK         0.3215 
     97 H97        27.2803  -52.4586  -55.8831 H         1 UNK         0.0863 
     98 H98        29.7339  -52.3671  -55.6381 H         1 UNK         0.0808 
     99 H99        29.8336  -51.0213  -56.7735 H         1 UNK         0.0808 
    100 H100       29.3038  -52.6057  -57.3236 H         1 UNK         0.0808 
    101 H101       28.1969  -49.6675  -55.2409 H         1 UNK         0.3118 
    102 H102       26.4312  -49.5979  -52.2992 H         1 UNK         0.0546 
    103 H103       29.3596  -50.4692  -52.0865 H         1 UNK         0.0828 
    104 H104       27.9988  -51.1352  -51.2018 H         1 UNK         0.0828 
    105 H105       28.5103  -49.4837  -50.8975 H         1 UNK         0.0828 
    106 H106       28.8684  -48.2605  -53.2158 H         1 UNK         0.3005 
    107 H107       27.1698  -46.0512  -55.3590 H         1 UNK         0.1257 
    108 H108       26.4969  -45.1371  -52.9821 H         1 UNK         0.0775 
    109 H109       27.3598  -44.1517  -54.0873 H         1 UNK         0.0775 
    110 H110       28.2904  -42.4532  -52.6406 H         1 UNK         0.0840 
    111 H111       29.6183  -42.6620  -51.5367 H         1 UNK         0.0840 
    112 H112       29.7665  -45.8187  -54.3405 H         1 UNK         0.2987 
    113 H113       31.2850  -47.3317  -56.9856 H         1 UNK         0.0785 
    114 H114       31.5456  -45.2564  -55.6348 H         1 UNK         0.0798 
    115 H115       32.9519  -46.2828  -55.4711 H         1 UNK         0.0798 
    116 H116       31.7694  -46.2047  -54.1697 H         1 UNK         0.0798 
    117 H117       32.1875  -49.1812  -56.1143 H         1 UNK         0.3079 
    118 H118       31.5744  -51.1646  -53.4077 H         1 UNK         0.0794 
    119 H119       33.6116  -50.5900  -55.6448 H         1 UNK         0.0786 
    120 H120       32.0802  -51.4370  -55.8625 H         1 UNK         0.0786 
    121 H121       33.3292  -52.1317  -54.8539 H         1 UNK         0.0786 
    122 H122       34.1526  -49.6620  -53.4139 H         1 UNK         0.3032 
    123 H123       34.1233  -49.1409  -49.9689 H         1 UNK         0.1094 
    124 H124       36.4282  -50.0801  -50.0638 H         1 UNK         0.0794 
    125 H125       35.2403  -51.3734  -50.0546 H         1 UNK         0.0794 
    126 H126       36.0441  -50.9367  -51.5567 H         1 UNK         0.0794 
    127 H127       35.8829  -48.5651  -52.2519 H         1 UNK         0.3016 
@<TRIPOS>BOND
     1    1    2 1    
     2    1   67 1    
     3    1   68 1    
     4    1   69 1    
     5    2    3 2    
     6    2    4 am   BACKBONE|DICT|INTERRES
     7    4    5 1    
     8    4   70 1    
     9    5    6 1    
    10    5   65 1    
    11    5   71 1    
    12    6    7 1    
    13    6   72 1    
    14    6   73 1    
    15    7    8 1    
    16    8    9 1    
    17    8   74 1    
    18    8   75 1    
    19    9   10 ar   
    20    9   14 ar   
    21   10   11 ar   
    22   10   76 1    
    23   11   12 ar   
    24   11   48 1    
    25   12   13 ar   
    26   12   77 1    
    27   13   14 ar   
    28   13   15 1    
    29   14   78 1    
    30   15   16 1    
    31   15   79 1    
    32   15   80 1    
    33   16   17 1    
    34   17   18 1    
    35   17   81 1    
    36   17   82 1    
    37   18   19 1    
    38   18   22 1    
    39   18   83 1    
    40   19   20 am   BACKBONE|DICT|INTERRES
    41   19   21 2    
    42   20   84 1    
    43   20   85 1    
    44   22   23 am   BACKBONE|DICT|INTERRES
    45   22   86 1    
    46   23   24 2    
    47   23   25 1    
    48   25   26 1    
    49   25   27 1    
    50   25   87 1    
    51   26   88 1    
    52   26   89 1    
    53   26   90 1    
    54   27   28 am   BACKBONE|DICT|INTERRES
    55   27   91 1    
    56   28   29 2    
    57   28   30 1    
    58   30   31 1    
    59   30   32 1    
    60   30   92 1    
    61   31   93 1    
    62   31   94 1    
    63   31   95 1    
    64   32   33 am   BACKBONE|DICT|INTERRES
    65   32   96 1    
    66   33   34 2    
    67   33   35 1    
    68   35   36 1    
    69   35   37 1    
    70   35   97 1    
    71   36   98 1    
    72   36   99 1    
    73   36  100 1    
    74   37   38 am   BACKBONE|DICT|INTERRES
    75   37  101 1    
    76   38   39 2    
    77   38   40 1    
    78   40   41 1    
    79   40   42 1    
    80   40  102 1    
    81   41  103 1    
    82   41  104 1    
    83   41  105 1    
    84   42   43 am   BACKBONE|DICT|INTERRES
    85   42  106 1    
    86   43   44 2    
    87   43   45 1    
    88   45   46 1    
    89   45   49 1    
    90   45  107 1    
    91   46   47 1    
    92   46  108 1    
    93   46  109 1    
    94   47   48 1    
    95   48  110 1    
    96   48  111 1    
    97   49   50 am   BACKBONE|DICT|INTERRES
    98   49  112 1    
    99   50   51 2    
   100   50   52 1    
   101   52   53 1    
   102   52   54 1    
   103   52  113 1    
   104   53  114 1    
   105   53  115 1    
   106   53  116 1    
   107   54   55 am   BACKBONE|DICT|INTERRES
   108   54  117 1    
   109   55   56 2    
   110   55   57 1    
   111   57   58 1    
   112   57   59 1    
   113   57  118 1    
   114   58  119 1    
   115   58  120 1    
   116   58  121 1    
   117   59   60 am   BACKBONE|DICT|INTERRES
   118   59  122 1    
   119   60   61 2    
   120   60   62 1    
   121   62   63 1    
   122   62   64 1    
   123   62  123 1    
   124   63  124 1    
   125   63  125 1    
   126   63  126 1    
   127   64   65 am   BACKBONE|DICT|INTERRES
   128   64  127 1    
   129   65   66 2    
@<TRIPOS>SUBSTRUCTURE
     1 UNK         1 GROUP             0       ****    0 ROOT    
