@<TRIPOS>MOLECULE
3R134
127   129    1
SMALL
USER_CHARGES


@<TRIPOS>ATOM
      1 CA         37.7971  -46.3377  -49.8574 C.3       0 UNK        -0.1968 
      2 C          36.6916  -45.9676  -50.8353 C.2       0 UNK         0.4852 
      3 O          35.9695  -44.9993  -50.5981 O.2       0 UNK        -0.5359 
      4 N          36.5474  -46.7422  -51.9215 N.am      1 UNK        -0.4300 
      5 CA         35.5757  -46.5677  -53.0148 C.3       1 UNK         0.0863 
      6 C6         35.6820  -45.1733  -53.6964 C.3       11 UNK        -0.0953 
      7 S7         35.2665  -45.1938  -55.4739 S.3       11 UNK        -0.2369 
      8 C8         34.6855  -43.4887  -55.7351 C.3       11 UNK         0.0226 
      9 C9         33.1722  -43.3510  -55.6140 C.ar      11 UNK        -0.0699 
     10 C10        32.5648  -43.2546  -54.3568 C.ar      11 UNK        -0.0804 
     11 C11        31.1863  -43.0493  -54.2507 C.ar      11 UNK        -0.0871 
     12 C12        30.4266  -42.8993  -55.4099 C.ar      11 UNK        -0.1008 
     13 C13        31.0005  -43.0576  -56.6714 C.ar      11 UNK        -0.0735 
     14 C14        32.3793  -43.2789  -56.7668 C.ar      11 UNK        -0.0945 
     15 C15        30.1303  -42.9864  -57.9217 C.3       11 UNK         0.0169 
     16 S16        28.8081  -44.2485  -57.9187 S.3       11 UNK        -0.2669 
     17 C17        27.4535  -43.4005  -57.0208 C.3       11 UNK        -0.0850 
     18 CA         26.0322  -43.7664  -57.5153 C.3       10 UNK         0.0855 
     19 C          25.7707  -43.3127  -58.9836 C.2       10 UNK         0.5543 
     20 N          25.4955  -44.2068  -59.9268 N.am      10 UNK        -0.7343 
     21 O          25.8056  -42.1176  -59.2665 O.2       10 UNK        -0.5027 
     22 N          25.7284  -45.1716  -57.2216 N.am      10 UNK        -0.4495 
     23 C          24.5055  -45.7135  -57.1922 C.2       10 UNK         0.4903 
     24 O          23.4654  -45.0605  -57.2927 O.2       10 UNK        -0.4860 
     25 CA         24.4441  -47.2477  -57.0408 C.3       9 UNK         0.0227 
     26 CB         23.1221  -47.8449  -57.5660 C.3       9 UNK        -0.1964 
     27 N          25.5929  -47.9391  -57.6426 N.am      9 UNK        -0.4231 
     28 C          26.0190  -47.8629  -58.9150 C.2       9 UNK         0.5014 
     29 O          25.4642  -47.1844  -59.7812 O.2       9 UNK        -0.5270 
     30 CA         27.2974  -48.6349  -59.2885 C.3       8 UNK         0.0284 
     31 CB         28.4229  -47.6646  -59.6816 C.3       8 UNK        -0.1977 
     32 N          27.7710  -49.5099  -58.2124 N.am      8 UNK        -0.4342 
     33 C          27.2964  -50.7431  -57.9943 C.2       8 UNK         0.5039 
     34 O          26.4491  -51.2854  -58.7054 O.2       8 UNK        -0.5547 
     35 CA         27.8398  -51.4989  -56.7728 C.3       7 UNK         0.0281 
     36 CB         29.1726  -52.1817  -57.1179 C.3       7 UNK        -0.1963 
     37 N          27.9914  -50.6742  -55.5674 N.am      7 UNK        -0.4444 
     38 C          26.9780  -50.0797  -54.9188 C.2       7 UNK         0.5104 
     39 O          25.8183  -50.0652  -55.3309 O.2       7 UNK        -0.5100 
     40 CA         27.3009  -49.3915  -53.5815 C.3       6 UNK         0.0396 
     41 CB         27.6267  -50.4275  -52.4935 C.3       6 UNK        -0.1801 
     42 N          28.3975  -48.4331  -53.6856 N.am      6 UNK        -0.4747 
     43 C          28.3380  -47.2664  -54.3457 C.2       6 UNK         0.5012 
     44 O          27.3296  -46.8426  -54.9131 O.2       6 UNK        -0.5003 
     45 CA         29.6598  -46.4748  -54.4290 C.3       5 UNK         0.0782 
     46 C46        29.9996  -45.7947  -53.0727 C.3       11 UNK        -0.0868 
     47 S47        29.1262  -44.2189  -52.7929 S.3       11 UNK        -0.2515 
     48 C48        30.4988  -43.0139  -52.8924 C.3       11 UNK         0.0199 
     49 N          30.7688  -47.3222  -54.8863 N.am      5 UNK        -0.4607 
     50 C          30.7818  -48.1101  -55.9730 C.2       4 UNK         0.5031 
     51 O          29.8653  -48.1907  -56.7897 O.2       4 UNK        -0.5119 
     52 CA         32.0059  -49.0216  -56.1417 C.3       4 UNK         0.0263 
     53 CB         33.1760  -48.2546  -56.7746 C.3       4 UNK        -0.1967 
     54 N          32.4243  -49.6214  -54.8720 N.am      4 UNK        -0.4237 
     55 C          31.7109  -50.5337  -54.1948 C.2       3 UNK         0.4908 
     56 O          30.6403  -50.9959  -54.5845 O.2       3 UNK        -0.5102 
     57 CA         32.2603  -50.9718  -52.8283 C.3       3 UNK         0.0241 
     58 CB         33.4164  -51.9711  -52.9955 C.3       3 UNK        -0.1971 
     59 N          32.6972  -49.8362  -52.0153 N.am      3 UNK        -0.4139 
     60 C          31.8826  -48.8740  -51.5590 C.2       2 UNK         0.5016 
     61 O          30.6617  -48.8739  -51.7204 O.2       2 UNK        -0.5319 
     62 CA         32.5514  -47.6903  -50.8380 C.3       2 UNK         0.0286 
     63 CB         32.6712  -47.9746  -49.3328 C.3       2 UNK        -0.1963 
     64 N          33.8718  -47.3316  -51.3729 N.am      2 UNK        -0.4790 
     65 C          34.1210  -46.9381  -52.6323 C.2       1 UNK         0.5024 
     66 O          33.2480  -46.9099  -53.4982 O.2       1 UNK        -0.4888 
     67 H67        38.5019  -45.5124  -49.7599 H         1 UNK         0.0892 
     68 H68        37.3755  -46.5432  -48.8738 H         1 UNK         0.0892 
     69 H69        38.3510  -47.2192  -50.1799 H         1 UNK         0.0892 
     70 H70        37.1710  -47.5301  -52.0366 H         1 UNK         0.3107 
     71 H71        35.8709  -47.3160  -53.7520 H         1 UNK         0.0773 
     72 H72        35.0769  -44.4373  -53.1677 H         1 UNK         0.0680 
     73 H73        36.7073  -44.8056  -53.6332 H         1 UNK         0.0680 
     74 H74        35.0071  -43.1697  -56.7277 H         1 UNK         0.0650 
     75 H75        35.1791  -42.8144  -55.0337 H         1 UNK         0.0650 
     76 H76        33.1625  -43.3355  -53.4610 H         1 UNK         0.1397 
     77 H77        29.3716  -42.7018  -55.3157 H         1 UNK         0.1363 
     78 H78        32.8406  -43.3774  -57.7399 H         1 UNK         0.1355 
     79 H79        29.7046  -41.9872  -58.0202 H         1 UNK         0.0707 
     80 H80        30.7407  -43.1440  -58.8121 H         1 UNK         0.0707 
     81 H81        27.5271  -43.6618  -55.9643 H         1 UNK         0.1034 
     82 H82        27.5942  -42.3195  -57.0730 H         1 UNK         0.1034 
     83 H83        25.3380  -43.1776  -56.9127 H         1 UNK         0.0482 
     84 H84        25.3245  -43.8910  -60.8676 H         1 UNK         0.3460 
     85 H85        25.4671  -45.1994  -59.7170 H         1 UNK         0.3460 
     86 H86        26.5263  -45.7807  -57.1050 H         1 UNK         0.2989 
     87 H87        24.4988  -47.4492  -55.9700 H         1 UNK         0.0559 
     88 H88        22.9781  -47.6357  -58.6266 H         1 UNK         0.0848 
     89 H89        22.2650  -47.4320  -57.0330 H         1 UNK         0.0848 
     90 H90        23.0954  -48.9261  -57.4301 H         1 UNK         0.0848 
     91 H91        26.1125  -48.5327  -57.0079 H         1 UNK         0.3144 
     92 H92        27.0615  -49.2415  -60.1654 H         1 UNK         0.0727 
     93 H93        28.6976  -47.0139  -58.8523 H         1 UNK         0.0790 
     94 H94        28.1201  -47.0236  -60.5107 H         1 UNK         0.0790 
     95 H95        29.3185  -48.2008  -59.9953 H         1 UNK         0.0790 
     96 H96        28.4870  -49.1266  -57.5943 H         1 UNK         0.3215 
     97 H97        27.1174  -52.2825  -56.5339 H         1 UNK         0.0863 
     98 H98        29.5119  -52.8232  -56.3045 H         1 UNK         0.0808 
     99 H99        29.9575  -51.4526  -57.3203 H         1 UNK         0.0808 
    100 H100       29.0736  -52.8101  -58.0041 H         1 UNK         0.0808 
    101 H101       28.9236  -50.6464  -55.1567 H         1 UNK         0.3118 
    102 H102       26.4098  -48.8450  -53.2655 H         1 UNK         0.0546 
    103 H103       26.8194  -51.1537  -52.3900 H         1 UNK         0.0828 
    104 H104       27.7610  -49.9507  -51.5224 H         1 UNK         0.0828 
    105 H105       28.5390  -50.9812  -52.7185 H         1 UNK         0.0828 
    106 H106       29.2685  -48.6853  -53.2273 H         1 UNK         0.3005 
    107 H107       29.5345  -45.7040  -55.1924 H         1 UNK         0.1257 
    108 H108       31.0687  -45.5919  -53.0157 H         1 UNK         0.0775 
    109 H109       29.7886  -46.4526  -52.2289 H         1 UNK         0.0775 
    110 H110       30.1069  -42.0113  -52.7166 H         1 UNK         0.0840 
    111 H111       31.2088  -43.2157  -52.0887 H         1 UNK         0.0840 
    112 H112       31.6097  -47.2942  -54.3154 H         1 UNK         0.2987 
    113 H113       31.7278  -49.8308  -56.8198 H         1 UNK         0.0785 
    114 H114       33.5014  -47.4277  -56.1446 H         1 UNK         0.0798 
    115 H115       32.8880  -47.8327  -57.7384 H         1 UNK         0.0798 
    116 H116       34.0334  -48.9050  -56.9474 H         1 UNK         0.0798 
    117 H117       33.2626  -49.2503  -54.4503 H         1 UNK         0.3079 
    118 H118       31.4509  -51.4734  -52.2930 H         1 UNK         0.0794 
    119 H119       34.2750  -51.5224  -53.4964 H         1 UNK         0.0786 
    120 H120       33.1041  -52.8304  -53.5908 H         1 UNK         0.0786 
    121 H121       33.7521  -52.3529  -52.0311 H         1 UNK         0.0786 
    122 H122       33.6852  -49.7537  -51.8258 H         1 UNK         0.3032 
    123 H123       31.9006  -46.8237  -50.9677 H         1 UNK         0.1094 
    124 H124       33.0478  -47.1051  -48.7934 H         1 UNK         0.0794 
    125 H125       31.6988  -48.2223  -48.9043 H         1 UNK         0.0794 
    126 H126       33.3398  -48.8122  -49.1300 H         1 UNK         0.0794 
    127 H127       34.6398  -47.3163  -50.7176 H         1 UNK         0.3016 
@<TRIPOS>BOND
     1    1    2 1    
     2    1   67 1    
     3    1   68 1    
     4    1   69 1    
     5    2    3 2    
     6    2    4 am   BACKBONE|DICT|INTERRES
     7    4    5 1    
     8    4   70 1    
     9    5    6 1    
    10    5   65 1    
    11    5   71 1    
    12    6    7 1    
    13    6   72 1    
    14    6   73 1    
    15    7    8 1    
    16    8    9 1    
    17    8   74 1    
    18    8   75 1    
    19    9   10 ar   
    20    9   14 ar   
    21   10   11 ar   
    22   10   76 1    
    23   11   12 ar   
    24   11   48 1    
    25   12   13 ar   
    26   12   77 1    
    27   13   14 ar   
    28   13   15 1    
    29   14   78 1    
    30   15   16 1    
    31   15   79 1    
    32   15   80 1    
    33   16   17 1    
    34   17   18 1    
    35   17   81 1    
    36   17   82 1    
    37   18   19 1    
    38   18   22 1    
    39   18   83 1    
    40   19   20 am   BACKBONE|DICT|INTERRES
    41   19   21 2    
    42   20   84 1    
    43   20   85 1    
    44   22   23 am   BACKBONE|DICT|INTERRES
    45   22   86 1    
    46   23   24 2    
    47   23   25 1    
    48   25   26 1    
    49   25   27 1    
    50   25   87 1    
    51   26   88 1    
    52   26   89 1    
    53   26   90 1    
    54   27   28 am   BACKBONE|DICT|INTERRES
    55   27   91 1    
    56   28   29 2    
    57   28   30 1    
    58   30   31 1    
    59   30   32 1    
    60   30   92 1    
    61   31   93 1    
    62   31   94 1    
    63   31   95 1    
    64   32   33 am   BACKBONE|DICT|INTERRES
    65   32   96 1    
    66   33   34 2    
    67   33   35 1    
    68   35   36 1    
    69   35   37 1    
    70   35   97 1    
    71   36   98 1    
    72   36   99 1    
    73   36  100 1    
    74   37   38 am   BACKBONE|DICT|INTERRES
    75   37  101 1    
    76   38   39 2    
    77   38   40 1    
    78   40   41 1    
    79   40   42 1    
    80   40  102 1    
    81   41  103 1    
    82   41  104 1    
    83   41  105 1    
    84   42   43 am   BACKBONE|DICT|INTERRES
    85   42  106 1    
    86   43   44 2    
    87   43   45 1    
    88   45   46 1    
    89   45   49 1    
    90   45  107 1    
    91   46   47 1    
    92   46  108 1    
    93   46  109 1    
    94   47   48 1    
    95   48  110 1    
    96   48  111 1    
    97   49   50 am   BACKBONE|DICT|INTERRES
    98   49  112 1    
    99   50   51 2    
   100   50   52 1    
   101   52   53 1    
   102   52   54 1    
   103   52  113 1    
   104   53  114 1    
   105   53  115 1    
   106   53  116 1    
   107   54   55 am   BACKBONE|DICT|INTERRES
   108   54  117 1    
   109   55   56 2    
   110   55   57 1    
   111   57   58 1    
   112   57   59 1    
   113   57  118 1    
   114   58  119 1    
   115   58  120 1    
   116   58  121 1    
   117   59   60 am   BACKBONE|DICT|INTERRES
   118   59  122 1    
   119   60   61 2    
   120   60   62 1    
   121   62   63 1    
   122   62   64 1    
   123   62  123 1    
   124   63  124 1    
   125   63  125 1    
   126   63  126 1    
   127   64   65 am   BACKBONE|DICT|INTERRES
   128   64  127 1    
   129   65   66 2    
@<TRIPOS>SUBSTRUCTURE
     1 UNK         1 GROUP             0       ****    0 ROOT    
