@<TRIPOS>MOLECULE
3R134
127   129    1
SMALL
USER_CHARGES


@<TRIPOS>ATOM
      1 CA         39.0768  -43.0579  -53.1772 C.3       0 UNK        -0.1968 
      2 C          38.1916  -44.0431  -53.9267 C.2       0 UNK         0.4852 
      3 O          38.6873  -44.7858  -54.7763 O.2       0 UNK        -0.5359 
      4 N          36.8870  -44.0481  -53.6254 N.am      1 UNK        -0.4300 
      5 CA         35.8952  -44.9583  -54.2082 C.3       1 UNK         0.0863 
      6 C6         34.4448  -44.4775  -53.9534 C.3       11 UNK        -0.0953 
      7 S7         34.1176  -42.8306  -54.6619 S.3       11 UNK        -0.2369 
      8 C8         33.0582  -42.0959  -53.3777 C.3       11 UNK         0.0226 
      9 C9         31.6684  -42.7177  -53.3654 C.ar      11 UNK        -0.0699 
     10 C10        31.3168  -43.6632  -52.3966 C.ar      11 UNK        -0.0804 
     11 C11        30.0278  -44.2075  -52.3676 C.ar      11 UNK        -0.0871 
     12 C12        29.0903  -43.8067  -53.3259 C.ar      11 UNK        -0.1008 
     13 C13        29.4331  -42.8632  -54.3001 C.ar      11 UNK        -0.0735 
     14 C14        30.7217  -42.3229  -54.3139 C.ar      11 UNK        -0.0945 
     15 C15        28.4107  -42.4015  -55.3254 C.3       11 UNK         0.0169 
     16 S16        28.5630  -43.3389  -56.8746 S.3       11 UNK        -0.2669 
     17 C17        27.3666  -42.4435  -57.9248 C.3       11 UNK        -0.0850 
     18 CA         25.9157  -42.9641  -57.7649 C.3       10 UNK         0.0855 
     19 C          24.9321  -42.1316  -58.6309 C.2       10 UNK         0.5543 
     20 N          24.3805  -41.0582  -58.0819 N.am      10 UNK        -0.7343 
     21 O          24.7009  -42.4223  -59.8032 O.2       10 UNK        -0.5027 
     22 N          25.8354  -44.4015  -58.0439 N.am      10 UNK        -0.4495 
     23 C          24.8045  -45.1988  -57.7540 C.2       10 UNK         0.4903 
     24 O          23.7784  -44.8115  -57.1937 O.2       10 UNK        -0.4860 
     25 CA         24.9384  -46.6904  -58.1100 C.3       9 UNK         0.0227 
     26 CB         24.2451  -47.0089  -59.4486 C.3       9 UNK        -0.1964 
     27 N          26.3097  -47.2206  -58.0734 N.am      9 UNK        -0.4231 
     28 C          27.3446  -46.9840  -58.8946 C.2       9 UNK         0.5014 
     29 O          27.3210  -46.1681  -59.8164 O.2       9 UNK        -0.5270 
     30 CA         28.6305  -47.7934  -58.6398 C.3       8 UNK         0.0284 
     31 CB         29.5569  -47.0429  -57.6693 C.3       8 UNK        -0.1977 
     32 N          28.3640  -49.1419  -58.1270 N.am      8 UNK        -0.4342 
     33 C          27.7334  -50.1073  -58.8147 C.2       8 UNK         0.5039 
     34 O          27.3974  -50.0042  -59.9950 O.2       8 UNK        -0.5547 
     35 CA         27.3936  -51.3946  -58.0489 C.3       7 UNK         0.0281 
     36 CB         28.5805  -52.3712  -58.0690 C.3       7 UNK        -0.1963 
     37 N          27.0009  -51.1036  -56.6673 N.am      7 UNK        -0.4444 
     38 C          25.7785  -50.6832  -56.3075 C.2       7 UNK         0.5104 
     39 O          24.8347  -50.5751  -57.0902 O.2       7 UNK        -0.5100 
     40 CA         25.5680  -50.3029  -54.8294 C.3       6 UNK         0.0396 
     41 CB         25.0607  -51.5142  -54.0315 C.3       6 UNK        -0.1801 
     42 N          26.7714  -49.7681  -54.1867 N.am      6 UNK        -0.4747 
     43 C          27.3493  -48.5973  -54.4970 C.2       6 UNK         0.5012 
     44 O          26.8934  -47.8175  -55.3317 O.2       6 UNK        -0.5003 
     45 CA         28.6891  -48.2719  -53.8028 C.3       5 UNK         0.0782 
     46 C46        28.4469  -47.4359  -52.5239 C.3       11 UNK        -0.0868 
     47 S47        30.0020  -46.9153  -51.7214 S.3       11 UNK        -0.2515 
     48 C48        29.6433  -45.1887  -51.2680 C.3       11 UNK         0.0199 
     49 N          29.4873  -49.4774  -53.5389 N.am      5 UNK        -0.4607 
     50 C          29.9402  -50.3278  -54.4681 C.2       4 UNK         0.5031 
     51 O          29.7095  -50.1910  -55.6716 O.2       4 UNK        -0.5119 
     52 CA         30.7537  -51.5371  -53.9632 C.3       4 UNK         0.0263 
     53 CB         31.2231  -52.4543  -55.1074 C.3       4 UNK        -0.1967 
     54 N          31.9200  -51.1299  -53.1778 N.am      4 UNK        -0.4237 
     55 C          31.9013  -50.7103  -51.9049 C.2       3 UNK         0.4908 
     56 O          30.8730  -50.6451  -51.2295 O.2       3 UNK        -0.5102 
     57 CA         33.2424  -50.2866  -51.2749 C.3       3 UNK         0.0241 
     58 CB         33.7530  -51.3773  -50.3187 C.3       3 UNK        -0.1971 
     59 N          34.2953  -49.9698  -52.2486 N.am      3 UNK        -0.4139 
     60 C          34.2728  -48.9155  -53.0749 C.2       2 UNK         0.5016 
     61 O          33.3425  -48.1082  -53.1298 O.2       2 UNK        -0.5319 
     62 CA         35.4708  -48.7672  -54.0304 C.3       2 UNK         0.0286 
     63 CB         35.2783  -49.6532  -55.2731 C.3       2 UNK        -0.1963 
     64 N          35.6285  -47.3760  -54.4598 N.am      2 UNK        -0.4790 
     65 C          36.0671  -46.3910  -53.6657 C.2       1 UNK         0.5024 
     66 O          36.5348  -46.5779  -52.5384 O.2       1 UNK        -0.4888 
     67 H67        39.5668  -42.3840  -53.8794 H         1 UNK         0.0892 
     68 H68        38.5079  -42.4545  -52.4699 H         1 UNK         0.0892 
     69 H69        39.8475  -43.5929  -52.6230 H         1 UNK         0.0892 
     70 H70        36.5387  -43.4266  -52.9104 H         1 UNK         0.3107 
     71 H71        36.0626  -44.9859  -55.2874 H         1 UNK         0.0773 
     72 H72        34.2371  -44.4626  -52.8819 H         1 UNK         0.0680 
     73 H73        33.7219  -45.1696  -54.3908 H         1 UNK         0.0680 
     74 H74        32.9723  -41.0249  -53.5673 H         1 UNK         0.0650 
     75 H75        33.5383  -42.1924  -52.4027 H         1 UNK         0.0650 
     76 H76        32.0426  -43.9674  -51.6549 H         1 UNK         0.1397 
     77 H77        28.0900  -44.2168  -53.3074 H         1 UNK         0.1363 
     78 H78        30.9889  -41.5915  -55.0647 H         1 UNK         0.1355 
     79 H79        27.3999  -42.5154  -54.9308 H         1 UNK         0.0707 
     80 H80        28.5471  -41.3376  -55.5255 H         1 UNK         0.0707 
     81 H81        27.4222  -41.3769  -57.6982 H         1 UNK         0.1034 
     82 H82        27.6903  -42.5439  -58.9627 H         1 UNK         0.1034 
     83 H83        25.6272  -42.8308  -56.7203 H         1 UNK         0.0482 
     84 H84        23.7516  -40.4948  -58.6329 H         1 UNK         0.3460 
     85 H85        24.5687  -40.8053  -57.1242 H         1 UNK         0.3460 
     86 H86        26.6032  -44.8030  -58.5701 H         1 UNK         0.2989 
     87 H87        24.4060  -47.2385  -57.3308 H         1 UNK         0.0559 
     88 H88        23.1934  -46.7214  -59.4191 H         1 UNK         0.0848 
     89 H89        24.2844  -48.0757  -59.6701 H         1 UNK         0.0848 
     90 H90        24.7020  -46.4747  -60.2822 H         1 UNK         0.0848 
     91 H91        26.5079  -47.7902  -57.2558 H         1 UNK         0.3144 
     92 H92        29.1503  -47.9003  -59.5941 H         1 UNK         0.0727 
     93 H93        29.0623  -46.8279  -56.7223 H         1 UNK         0.0790 
     94 H94        29.8652  -46.0860  -58.0926 H         1 UNK         0.0790 
     95 H95        30.4625  -47.6116  -57.4570 H         1 UNK         0.0790 
     96 H96        28.6823  -49.3530  -57.1860 H         1 UNK         0.3215 
     97 H97        26.5552  -51.8770  -58.5569 H         1 UNK         0.0863 
     98 H98        28.3664  -53.2730  -57.4955 H         1 UNK         0.0808 
     99 H99        29.4870  -51.9196  -57.6663 H         1 UNK         0.0808 
    100 H100       28.8048  -52.6822  -59.0901 H         1 UNK         0.0808 
    101 H101       27.7385  -51.1097  -55.9754 H         1 UNK         0.3118 
    102 H102       24.7989  -49.5282  -54.7961 H         1 UNK         0.0546 
    103 H103       25.7942  -52.3212  -54.0086 H         1 UNK         0.0828 
    104 H104       24.1480  -51.9170  -54.4732 H         1 UNK         0.0828 
    105 H105       24.8264  -51.2425  -53.0022 H         1 UNK         0.0828 
    106 H106       27.2126  -50.3462  -53.4857 H         1 UNK         0.3005 
    107 H107       29.2644  -47.6581  -54.4988 H         1 UNK         0.1257 
    108 H108       27.8642  -48.0039  -51.7961 H         1 UNK         0.0775 
    109 H109       27.8550  -46.5510  -52.7635 H         1 UNK         0.0775 
    110 H110       28.5901  -45.0791  -51.0047 H         1 UNK         0.0840 
    111 H111       30.1990  -44.9509  -50.3596 H         1 UNK         0.0840 
    112 H112       29.7528  -49.6443  -52.5733 H         1 UNK         0.2987 
    113 H113       30.0919  -52.1230  -53.3218 H         1 UNK         0.0785 
    114 H114       30.3714  -52.8654  -55.6494 H         1 UNK         0.0798 
    115 H115       31.7973  -53.3004  -54.7294 H         1 UNK         0.0798 
    116 H116       31.8451  -51.9201  -55.8270 H         1 UNK         0.0798 
    117 H117       32.8049  -51.1214  -53.6620 H         1 UNK         0.3079 
    118 H118       33.0473  -49.3845  -50.6907 H         1 UNK         0.0794 
    119 H119       34.6523  -51.0561  -49.7928 H         1 UNK         0.0786 
    120 H120       33.9836  -52.3031  -50.8475 H         1 UNK         0.0786 
    121 H121       33.0050  -51.6134  -49.5602 H         1 UNK         0.0786 
    122 H122       35.0906  -50.5928  -52.2710 H         1 UNK         0.3032 
    123 H123       36.3792  -49.0767  -53.5078 H         1 UNK         0.1094 
    124 H124       34.3678  -49.3958  -55.8166 H         1 UNK         0.0794 
    125 H125       36.1180  -49.5578  -55.9620 H         1 UNK         0.0794 
    126 H126       35.2075  -50.7066  -54.9993 H         1 UNK         0.0794 
    127 H127       35.2195  -47.1342  -55.3510 H         1 UNK         0.3016 
@<TRIPOS>BOND
     1    1    2 1    
     2    1   67 1    
     3    1   68 1    
     4    1   69 1    
     5    2    3 2    
     6    2    4 am   BACKBONE|DICT|INTERRES
     7    4    5 1    
     8    4   70 1    
     9    5    6 1    
    10    5   65 1    
    11    5   71 1    
    12    6    7 1    
    13    6   72 1    
    14    6   73 1    
    15    7    8 1    
    16    8    9 1    
    17    8   74 1    
    18    8   75 1    
    19    9   10 ar   
    20    9   14 ar   
    21   10   11 ar   
    22   10   76 1    
    23   11   12 ar   
    24   11   48 1    
    25   12   13 ar   
    26   12   77 1    
    27   13   14 ar   
    28   13   15 1    
    29   14   78 1    
    30   15   16 1    
    31   15   79 1    
    32   15   80 1    
    33   16   17 1    
    34   17   18 1    
    35   17   81 1    
    36   17   82 1    
    37   18   19 1    
    38   18   22 1    
    39   18   83 1    
    40   19   20 am   BACKBONE|DICT|INTERRES
    41   19   21 2    
    42   20   84 1    
    43   20   85 1    
    44   22   23 am   BACKBONE|DICT|INTERRES
    45   22   86 1    
    46   23   24 2    
    47   23   25 1    
    48   25   26 1    
    49   25   27 1    
    50   25   87 1    
    51   26   88 1    
    52   26   89 1    
    53   26   90 1    
    54   27   28 am   BACKBONE|DICT|INTERRES
    55   27   91 1    
    56   28   29 2    
    57   28   30 1    
    58   30   31 1    
    59   30   32 1    
    60   30   92 1    
    61   31   93 1    
    62   31   94 1    
    63   31   95 1    
    64   32   33 am   BACKBONE|DICT|INTERRES
    65   32   96 1    
    66   33   34 2    
    67   33   35 1    
    68   35   36 1    
    69   35   37 1    
    70   35   97 1    
    71   36   98 1    
    72   36   99 1    
    73   36  100 1    
    74   37   38 am   BACKBONE|DICT|INTERRES
    75   37  101 1    
    76   38   39 2    
    77   38   40 1    
    78   40   41 1    
    79   40   42 1    
    80   40  102 1    
    81   41  103 1    
    82   41  104 1    
    83   41  105 1    
    84   42   43 am   BACKBONE|DICT|INTERRES
    85   42  106 1    
    86   43   44 2    
    87   43   45 1    
    88   45   46 1    
    89   45   49 1    
    90   45  107 1    
    91   46   47 1    
    92   46  108 1    
    93   46  109 1    
    94   47   48 1    
    95   48  110 1    
    96   48  111 1    
    97   49   50 am   BACKBONE|DICT|INTERRES
    98   49  112 1    
    99   50   51 2    
   100   50   52 1    
   101   52   53 1    
   102   52   54 1    
   103   52  113 1    
   104   53  114 1    
   105   53  115 1    
   106   53  116 1    
   107   54   55 am   BACKBONE|DICT|INTERRES
   108   54  117 1    
   109   55   56 2    
   110   55   57 1    
   111   57   58 1    
   112   57   59 1    
   113   57  118 1    
   114   58  119 1    
   115   58  120 1    
   116   58  121 1    
   117   59   60 am   BACKBONE|DICT|INTERRES
   118   59  122 1    
   119   60   61 2    
   120   60   62 1    
   121   62   63 1    
   122   62   64 1    
   123   62  123 1    
   124   63  124 1    
   125   63  125 1    
   126   63  126 1    
   127   64   65 am   BACKBONE|DICT|INTERRES
   128   64  127 1    
   129   65   66 2    
@<TRIPOS>SUBSTRUCTURE
     1 UNK         1 GROUP             0       ****    0 ROOT    
