@<TRIPOS>MOLECULE
3R134
127   129    1
SMALL
USER_CHARGES


@<TRIPOS>ATOM
      1 CA         30.2352  -46.6873  -49.4748 C.3       0 UNK        -0.1968 
      2 C          31.7059  -46.3082  -49.5715 C.2       0 UNK         0.4852 
      3 O          32.5592  -47.0298  -49.0541 O.2       0 UNK        -0.5359 
      4 N          32.0065  -45.1855  -50.2385 N.am      1 UNK        -0.4300 
      5 CA         33.3622  -44.6862  -50.5132 C.3       1 UNK         0.0863 
      6 C6         33.3441  -43.2230  -51.0283 C.3       11 UNK        -0.0953 
      7 S7         32.1587  -42.9369  -52.3884 S.3       11 UNK        -0.2369 
      8 C8         33.2690  -42.6934  -53.8094 C.3       11 UNK         0.0226 
      9 C9         32.4960  -42.6294  -55.1212 C.ar      11 UNK        -0.0699 
     10 C10        32.7843  -43.5262  -56.1546 C.ar      11 UNK        -0.0804 
     11 C11        32.0794  -43.4702  -57.3606 C.ar      11 UNK        -0.0871 
     12 C12        31.0792  -42.5082  -57.5310 C.ar      11 UNK        -0.1008 
     13 C13        30.7737  -41.6121  -56.5034 C.ar      11 UNK        -0.0735 
     14 C14        31.4967  -41.6682  -55.3078 C.ar      11 UNK        -0.0945 
     15 C15        29.6553  -40.5912  -56.6781 C.3       11 UNK         0.0169 
     16 S16        28.0000  -41.3616  -56.7272 S.3       11 UNK        -0.2669 
     17 C17        27.9914  -42.3366  -55.1842 C.3       11 UNK        -0.0850 
     18 CA         28.2008  -43.8459  -55.4751 C.3       10 UNK         0.0855 
     19 C          28.6918  -44.5896  -54.2128 C.2       10 UNK         0.5543 
     20 N          29.9691  -44.9339  -54.1564 N.am      10 UNK        -0.7343 
     21 O          27.9284  -44.8335  -53.2805 O.2       10 UNK        -0.5027 
     22 N          26.9661  -44.4794  -55.9575 N.am      10 UNK        -0.4495 
     23 C          26.8427  -45.1322  -57.1159 C.2       10 UNK         0.4903 
     24 O          27.7139  -45.1800  -57.9850 O.2       10 UNK        -0.4860 
     25 CA         25.5070  -45.8417  -57.3641 C.3       9 UNK         0.0227 
     26 CB         24.6187  -44.9827  -58.2879 C.3       9 UNK        -0.1964 
     27 N          25.8017  -47.1461  -57.9556 N.am      9 UNK        -0.4231 
     28 C          24.9306  -48.1135  -58.2678 C.2       9 UNK         0.5014 
     29 O          23.7137  -48.0328  -58.0955 O.2       9 UNK        -0.5270 
     30 CA         25.5228  -49.4050  -58.8509 C.3       8 UNK         0.0284 
     31 CB         26.3747  -49.1329  -60.1048 C.3       8 UNK        -0.1977 
     32 N          26.3385  -50.0623  -57.8325 N.am      8 UNK        -0.4342 
     33 C          25.9572  -51.1203  -57.1033 C.2       8 UNK         0.5039 
     34 O          24.9191  -51.7529  -57.3035 O.2       8 UNK        -0.5547 
     35 CA         26.8754  -51.5498  -55.9395 C.3       7 UNK         0.0281 
     36 CB         27.8121  -52.6839  -56.3860 C.3       7 UNK        -0.1963 
     37 N          27.6801  -50.4595  -55.3824 N.am      7 UNK        -0.4444 
     38 C          27.1954  -49.3358  -54.8357 C.2       7 UNK         0.5104 
     39 O          26.0001  -49.1382  -54.6173 O.2       7 UNK        -0.5100 
     40 CA         28.2072  -48.2209  -54.5221 C.3       6 UNK         0.0396 
     41 CB         28.6136  -48.2754  -53.0416 C.3       6 UNK        -0.1801 
     42 N          29.4140  -48.2302  -55.3595 N.am      6 UNK        -0.4747 
     43 C          29.4509  -48.1627  -56.7007 C.2       6 UNK         0.5012 
     44 O          28.4474  -48.1501  -57.4136 O.2       6 UNK        -0.5003 
     45 CA         30.8427  -48.2003  -57.3552 C.3       5 UNK         0.0782 
     46 C46        31.5831  -46.8426  -57.2530 C.3       11 UNK        -0.0868 
     47 S47        31.1434  -45.7425  -58.6364 S.3       11 UNK        -0.2515 
     48 C48        32.4015  -44.4370  -58.4896 C.3       11 UNK         0.0199 
     49 N          31.6228  -49.3004  -56.7894 N.am      5 UNK        -0.4607 
     50 C          31.5200  -50.5757  -57.1892 C.2       4 UNK         0.5031 
     51 O          30.8256  -50.9418  -58.1370 O.2       4 UNK        -0.5119 
     52 CA         32.3150  -51.6285  -56.3970 C.3       4 UNK         0.0263 
     53 CB         33.6709  -51.8952  -57.0700 C.3       4 UNK        -0.1967 
     54 N          32.5335  -51.2578  -54.9970 N.am      4 UNK        -0.4237 
     55 C          31.5640  -51.1544  -54.0770 C.2       3 UNK         0.4908 
     56 O          30.3773  -51.3963  -54.2982 O.2       3 UNK        -0.5102 
     57 CA         31.9896  -50.6492  -52.6879 C.3       3 UNK         0.0241 
     58 CB         32.4732  -51.8171  -51.8136 C.3       3 UNK        -0.1971 
     59 N          33.0175  -49.6003  -52.7235 N.am      3 UNK        -0.4139 
     60 C          32.8763  -48.4146  -53.3316 C.2       2 UNK         0.5016 
     61 O          31.8806  -48.0870  -53.9806 O.2       2 UNK        -0.5319 
     62 CA         34.0104  -47.4034  -53.1671 C.3       2 UNK         0.0286 
     63 CB         34.4642  -46.8331  -54.5219 C.3       2 UNK        -0.1963 
     64 N          33.4780  -46.3397  -52.3284 N.am      2 UNK        -0.4790 
     65 C          34.1733  -45.6137  -51.4462 C.2       1 UNK         0.5024 
     66 O          35.3983  -45.6714  -51.3298 O.2       1 UNK        -0.4888 
     67 H67        29.9253  -46.7261  -48.4309 H         1 UNK         0.0892 
     68 H68        30.0723  -47.6703  -49.9161 H         1 UNK         0.0892 
     69 H69        29.5940  -45.9742  -49.9932 H         1 UNK         0.0892 
     70 H70        31.2640  -44.6202  -50.6267 H         1 UNK         0.3107 
     71 H71        33.8949  -44.6844  -49.5597 H         1 UNK         0.0773 
     72 H72        33.0543  -42.5629  -50.2094 H         1 UNK         0.0680 
     73 H73        34.3429  -42.8944  -51.3226 H         1 UNK         0.0680 
     74 H74        33.9979  -43.5051  -53.8319 H         1 UNK         0.0650 
     75 H75        33.8304  -41.7679  -53.6753 H         1 UNK         0.0650 
     76 H76        33.5644  -44.2626  -56.0253 H         1 UNK         0.1397 
     77 H77        30.5215  -42.4709  -58.4572 H         1 UNK         0.1363 
     78 H78        31.2706  -40.9753  -54.5087 H         1 UNK         0.1355 
     79 H79        29.8151  -40.0381  -57.6047 H         1 UNK         0.0707 
     80 H80        29.6773  -39.8530  -55.8748 H         1 UNK         0.0707 
     81 H81        27.0481  -42.1692  -54.6614 H         1 UNK         0.1034 
     82 H82        28.7651  -41.9487  -54.5190 H         1 UNK         0.1034 
     83 H83        28.9850  -43.9446  -56.2285 H         1 UNK         0.0482 
     84 H84        30.6057  -44.6720  -54.8924 H         1 UNK         0.3460 
     85 H85        30.3067  -45.4175  -53.3440 H         1 UNK         0.3460 
     86 H86        26.2139  -44.5202  -55.2843 H         1 UNK         0.2989 
     87 H87        24.9987  -46.0042  -56.4117 H         1 UNK         0.0559 
     88 H88        23.6253  -45.4122  -58.4128 H         1 UNK         0.0848 
     89 H89        25.0626  -44.8696  -59.2778 H         1 UNK         0.0848 
     90 H90        24.4821  -43.9817  -57.8765 H         1 UNK         0.0848 
     91 H91        26.7974  -47.3251  -58.0764 H         1 UNK         0.3144 
     92 H92        24.6920  -50.0483  -59.1485 H         1 UNK         0.0727 
     93 H93        26.7108  -50.0656  -60.5580 H         1 UNK         0.0790 
     94 H94        27.2606  -48.5361  -59.8851 H         1 UNK         0.0790 
     95 H95        25.7972  -48.5967  -60.8590 H         1 UNK         0.0790 
     96 H96        27.1903  -49.5732  -57.5682 H         1 UNK         0.3215 
     97 H97        26.2341  -51.9255  -55.1396 H         1 UNK         0.0863 
     98 H98        28.4076  -53.0586  -55.5531 H         1 UNK         0.0808 
     99 H99        28.4988  -52.3546  -57.1672 H         1 UNK         0.0808 
    100 H100       27.2446  -53.5266  -56.7831 H         1 UNK         0.0808 
    101 H101       28.6873  -50.5638  -55.4271 H         1 UNK         0.3118 
    102 H102       27.6995  -47.2737  -54.7066 H         1 UNK         0.0546 
    103 H103       29.0818  -49.2268  -52.7918 H         1 UNK         0.0828 
    104 H104       27.7427  -48.1601  -52.3952 H         1 UNK         0.0828 
    105 H105       29.3117  -47.4789  -52.7867 H         1 UNK         0.0828 
    106 H106       30.3015  -48.2350  -54.8580 H         1 UNK         0.3005 
    107 H107       30.6881  -48.4215  -58.4145 H         1 UNK         0.1257 
    108 H108       31.3958  -46.3402  -56.3023 H         1 UNK         0.0775 
    109 H109       32.6612  -47.0036  -57.3015 H         1 UNK         0.0775 
    110 H110       33.3876  -44.8847  -58.3563 H         1 UNK         0.0840 
    111 H111       32.4449  -43.8864  -59.4305 H         1 UNK         0.0840 
    112 H112       32.1578  -49.0875  -55.9586 H         1 UNK         0.2987 
    113 H113       31.7357  -52.5545  -56.4123 H         1 UNK         0.0785 
    114 H114       33.5368  -52.1998  -58.1090 H         1 UNK         0.0798 
    115 H115       34.2133  -52.6965  -56.5677 H         1 UNK         0.0798 
    116 H116       34.3046  -51.0073  -57.0704 H         1 UNK         0.0798 
    117 H117       33.4808  -51.0424  -54.7222 H         1 UNK         0.3079 
    118 H118       31.1063  -50.2196  -52.2129 H         1 UNK         0.0794 
    119 H119       31.7166  -52.6013  -51.7571 H         1 UNK         0.0786 
    120 H120       32.6748  -51.4918  -50.7927 H         1 UNK         0.0786 
    121 H121       33.3834  -52.2703  -52.2084 H         1 UNK         0.0786 
    122 H122       33.8594  -49.7793  -52.1949 H         1 UNK         0.3032 
    123 H123       34.8600  -47.8823  -52.6747 H         1 UNK         0.1094 
    124 H124       34.8484  -47.6217  -55.1699 H         1 UNK         0.0794 
    125 H125       33.6412  -46.3494  -55.0464 H         1 UNK         0.0794 
    126 H126       35.2587  -46.0975  -54.3962 H         1 UNK         0.0794 
    127 H127       32.4726  -46.2442  -52.3490 H         1 UNK         0.3016 
@<TRIPOS>BOND
     1    1    2 1    
     2    1   67 1    
     3    1   68 1    
     4    1   69 1    
     5    2    3 2    
     6    2    4 am   BACKBONE|DICT|INTERRES
     7    4    5 1    
     8    4   70 1    
     9    5    6 1    
    10    5   65 1    
    11    5   71 1    
    12    6    7 1    
    13    6   72 1    
    14    6   73 1    
    15    7    8 1    
    16    8    9 1    
    17    8   74 1    
    18    8   75 1    
    19    9   10 ar   
    20    9   14 ar   
    21   10   11 ar   
    22   10   76 1    
    23   11   12 ar   
    24   11   48 1    
    25   12   13 ar   
    26   12   77 1    
    27   13   14 ar   
    28   13   15 1    
    29   14   78 1    
    30   15   16 1    
    31   15   79 1    
    32   15   80 1    
    33   16   17 1    
    34   17   18 1    
    35   17   81 1    
    36   17   82 1    
    37   18   19 1    
    38   18   22 1    
    39   18   83 1    
    40   19   20 am   BACKBONE|DICT|INTERRES
    41   19   21 2    
    42   20   84 1    
    43   20   85 1    
    44   22   23 am   BACKBONE|DICT|INTERRES
    45   22   86 1    
    46   23   24 2    
    47   23   25 1    
    48   25   26 1    
    49   25   27 1    
    50   25   87 1    
    51   26   88 1    
    52   26   89 1    
    53   26   90 1    
    54   27   28 am   BACKBONE|DICT|INTERRES
    55   27   91 1    
    56   28   29 2    
    57   28   30 1    
    58   30   31 1    
    59   30   32 1    
    60   30   92 1    
    61   31   93 1    
    62   31   94 1    
    63   31   95 1    
    64   32   33 am   BACKBONE|DICT|INTERRES
    65   32   96 1    
    66   33   34 2    
    67   33   35 1    
    68   35   36 1    
    69   35   37 1    
    70   35   97 1    
    71   36   98 1    
    72   36   99 1    
    73   36  100 1    
    74   37   38 am   BACKBONE|DICT|INTERRES
    75   37  101 1    
    76   38   39 2    
    77   38   40 1    
    78   40   41 1    
    79   40   42 1    
    80   40  102 1    
    81   41  103 1    
    82   41  104 1    
    83   41  105 1    
    84   42   43 am   BACKBONE|DICT|INTERRES
    85   42  106 1    
    86   43   44 2    
    87   43   45 1    
    88   45   46 1    
    89   45   49 1    
    90   45  107 1    
    91   46   47 1    
    92   46  108 1    
    93   46  109 1    
    94   47   48 1    
    95   48  110 1    
    96   48  111 1    
    97   49   50 am   BACKBONE|DICT|INTERRES
    98   49  112 1    
    99   50   51 2    
   100   50   52 1    
   101   52   53 1    
   102   52   54 1    
   103   52  113 1    
   104   53  114 1    
   105   53  115 1    
   106   53  116 1    
   107   54   55 am   BACKBONE|DICT|INTERRES
   108   54  117 1    
   109   55   56 2    
   110   55   57 1    
   111   57   58 1    
   112   57   59 1    
   113   57  118 1    
   114   58  119 1    
   115   58  120 1    
   116   58  121 1    
   117   59   60 am   BACKBONE|DICT|INTERRES
   118   59  122 1    
   119   60   61 2    
   120   60   62 1    
   121   62   63 1    
   122   62   64 1    
   123   62  123 1    
   124   63  124 1    
   125   63  125 1    
   126   63  126 1    
   127   64   65 am   BACKBONE|DICT|INTERRES
   128   64  127 1    
   129   65   66 2    
@<TRIPOS>SUBSTRUCTURE
     1 UNK         1 GROUP             0       ****    0 ROOT    
