@<TRIPOS>MOLECULE
3R134
127   129    1
SMALL
USER_CHARGES


@<TRIPOS>ATOM
      1 CA         36.3485  -42.6536  -52.8314 C.3       0 UNK        -0.1968 
      2 C          36.4904  -43.9146  -53.6715 C.2       0 UNK         0.4852 
      3 O          37.5877  -44.2129  -54.1466 O.2       0 UNK        -0.5359 
      4 N          35.3879  -44.6490  -53.8648 N.am      1 UNK        -0.4300 
      5 CA         35.3400  -45.9144  -54.6028 C.3       1 UNK         0.0863 
      6 C6         33.8847  -46.3469  -54.9074 C.3       11 UNK        -0.0953 
      7 S7         32.9742  -45.1664  -55.9513 S.3       11 UNK        -0.2369 
      8 C8         31.2987  -45.8746  -55.8364 C.3       11 UNK         0.0226 
      9 C9         30.3752  -45.0761  -54.9249 C.ar      11 UNK        -0.0699 
     10 C10        30.7170  -44.8112  -53.5942 C.ar      11 UNK        -0.0804 
     11 C11        29.8259  -44.1374  -52.7521 C.ar      11 UNK        -0.0871 
     12 C12        28.5960  -43.7015  -53.2551 C.ar      11 UNK        -0.1008 
     13 C13        28.2423  -43.9659  -54.5799 C.ar      11 UNK        -0.0735 
     14 C14        29.1345  -44.6516  -55.4067 C.ar      11 UNK        -0.0945 
     15 C15        26.8780  -43.5630  -55.1113 C.3       11 UNK         0.0169 
     16 S16        25.7125  -44.9446  -54.9232 S.3       11 UNK        -0.2669 
     17 C17        24.6621  -44.7770  -56.4036 C.3       11 UNK        -0.0850 
     18 CA         25.1552  -45.7020  -57.5548 C.3       10 UNK         0.0855 
     19 C          24.0480  -46.0636  -58.5948 C.2       10 UNK         0.5543 
     20 N          24.3875  -46.3571  -59.8457 N.am      10 UNK        -0.7343 
     21 O          22.8668  -46.1167  -58.2616 O.2       10 UNK        -0.5027 
     22 N          26.4206  -45.2439  -58.1545 N.am      10 UNK        -0.4495 
     23 C          26.5825  -44.1610  -58.9316 C.2       10 UNK         0.4903 
     24 O          25.7142  -43.3058  -59.1064 O.2       10 UNK        -0.4860 
     25 CA         27.9238  -44.0142  -59.6800 C.3       9 UNK         0.0227 
     26 CB         28.8072  -42.9432  -59.0187 C.3       9 UNK        -0.1964 
     27 N          28.6809  -45.2646  -59.8062 N.am      9 UNK        -0.4231 
     28 C          28.2603  -46.3680  -60.4426 C.2       9 UNK         0.5014 
     29 O          27.1997  -46.4389  -61.0668 O.2       9 UNK        -0.5270 
     30 CA         29.1278  -47.6326  -60.3008 C.3       8 UNK         0.0284 
     31 CB         30.6078  -47.3461  -59.9580 C.3       8 UNK        -0.1977 
     32 N          28.5463  -48.5745  -59.3344 N.am      8 UNK        -0.4342 
     33 C          28.2329  -48.3276  -58.0537 C.2       8 UNK         0.5039 
     34 O          28.4026  -47.2401  -57.4945 O.2       8 UNK        -0.5547 
     35 CA         27.6285  -49.4917  -57.2630 C.3       7 UNK         0.0281 
     36 CB         28.7042  -50.5370  -56.9126 C.3       7 UNK        -0.1963 
     37 N          27.0460  -48.9661  -56.0320 N.am      7 UNK        -0.4444 
     38 C          26.0262  -49.5073  -55.3556 C.2       7 UNK         0.5104 
     39 O          25.4208  -50.5114  -55.7345 O.2       7 UNK        -0.5100 
     40 CA         25.6488  -48.8407  -54.0194 C.3       6 UNK         0.0396 
     41 CB         24.8479  -49.7812  -53.0932 C.3       6 UNK        -0.1801 
     42 N          26.8619  -48.3694  -53.3536 N.am      6 UNK        -0.4747 
     43 C          26.9510  -47.5042  -52.3384 C.2       6 UNK         0.5012 
     44 O          25.9732  -47.0193  -51.7663 O.2       6 UNK        -0.5003 
     45 CA         28.3838  -47.1382  -51.8865 C.3       5 UNK         0.0782 
     46 C46        28.4083  -46.1118  -50.7209 C.3       11 UNK        -0.0868 
     47 S47        30.0989  -45.5170  -50.3597 S.3       11 UNK        -0.2515 
     48 C48        30.1614  -43.9422  -51.2807 C.3       11 UNK         0.0199 
     49 N          29.1920  -48.3275  -51.5821 N.am      5 UNK        -0.4607 
     50 C          29.7543  -49.1390  -52.4849 C.2       4 UNK         0.5031 
     51 O          29.5953  -49.0186  -53.7023 O.2       4 UNK        -0.5119 
     52 CA         30.5750  -50.3148  -51.9265 C.3       4 UNK         0.0263 
     53 CB         29.6432  -51.4788  -51.5491 C.3       4 UNK        -0.1967 
     54 N          31.5702  -50.7973  -52.8872 N.am      4 UNK        -0.4237 
     55 C          32.6371  -50.0975  -53.2934 C.2       3 UNK         0.4908 
     56 O          32.9502  -48.9958  -52.8356 O.2       3 UNK        -0.5102 
     57 CA         33.4629  -50.7312  -54.4275 C.3       3 UNK         0.0241 
     58 CB         32.7043  -50.6271  -55.7636 C.3       3 UNK        -0.1971 
     59 N          34.7605  -50.0736  -54.5793 N.am      3 UNK        -0.4139 
     60 C          35.8269  -50.2512  -53.7866 C.2       2 UNK         0.5016 
     61 O          35.8904  -51.1001  -52.8962 O.2       2 UNK        -0.5319 
     62 CA         37.0247  -49.3115  -54.0306 C.3       2 UNK         0.0286 
     63 CB         38.0338  -49.9586  -54.9932 C.3       2 UNK        -0.1963 
     64 N          36.5984  -48.0143  -54.5702 N.am      2 UNK        -0.4790 
     65 C          36.0430  -47.0466  -53.8267 C.2       1 UNK         0.5024 
     66 O          36.0084  -47.0657  -52.5936 O.2       1 UNK        -0.4888 
     67 H67        35.3241  -42.5029  -52.4909 H         1 UNK         0.0892 
     68 H68        36.9918  -42.7135  -51.9540 H         1 UNK         0.0892 
     69 H69        36.6440  -41.7803  -53.4124 H         1 UNK         0.0892 
     70 H70        34.5176  -44.3599  -53.4438 H         1 UNK         0.3107 
     71 H71        35.8658  -45.7689  -55.5492 H         1 UNK         0.0773 
     72 H72        33.3323  -46.5022  -53.9791 H         1 UNK         0.0680 
     73 H73        33.8701  -47.3052  -55.4293 H         1 UNK         0.0680 
     74 H74        31.3380  -46.9078  -55.4873 H         1 UNK         0.0650 
     75 H75        30.8868  -45.9151  -56.8448 H         1 UNK         0.0650 
     76 H76        31.6578  -45.1636  -53.1974 H         1 UNK         0.1397 
     77 H77        27.8947  -43.1943  -52.6065 H         1 UNK         0.1363 
     78 H78        28.8434  -44.8862  -56.4202 H         1 UNK         0.1355 
     79 H79        26.4957  -42.6910  -54.5788 H         1 UNK         0.0707 
     80 H80        26.9646  -43.2712  -56.1578 H         1 UNK         0.0707 
     81 H81        23.6527  -45.0478  -56.0898 H         1 UNK         0.1034 
     82 H82        24.6026  -43.7351  -56.7203 H         1 UNK         0.1034 
     83 H83        25.3936  -46.6675  -57.1073 H         1 UNK         0.0482 
     84 H84        25.3552  -46.3289  -60.1467 H         1 UNK         0.3460 
     85 H85        23.6659  -46.6005  -60.5053 H         1 UNK         0.3460 
     86 H86        27.2039  -45.8830  -58.0402 H         1 UNK         0.2989 
     87 H87        27.6868  -43.6771  -60.6911 H         1 UNK         0.0559 
     88 H88        28.2737  -41.9953  -58.9353 H         1 UNK         0.0848 
     89 H89        29.7067  -42.7536  -59.6046 H         1 UNK         0.0848 
     90 H90        29.1164  -43.2289  -58.0140 H         1 UNK         0.0848 
     91 H91        29.5418  -45.3292  -59.2832 H         1 UNK         0.3144 
     92 H92        29.1067  -48.1263  -61.2737 H         1 UNK         0.0727 
     93 H93        31.2007  -48.2591  -60.0129 H         1 UNK         0.0790 
     94 H94        30.7342  -46.9398  -58.9552 H         1 UNK         0.0790 
     95 H95        31.0471  -46.6390  -60.6632 H         1 UNK         0.0790 
     96 H96        28.3344  -49.4910  -59.7046 H         1 UNK         0.3215 
     97 H97        26.8465  -49.9502  -57.8723 H         1 UNK         0.0863 
     98 H98        28.2814  -51.3686  -56.3487 H         1 UNK         0.0808 
     99 H99        29.5023  -50.0996  -56.3109 H         1 UNK         0.0808 
    100 H100       29.1618  -50.9552  -57.8097 H         1 UNK         0.0808 
    101 H101       27.4573  -48.0913  -55.7269 H         1 UNK         0.3118 
    102 H102       25.0295  -47.9747  -54.2600 H         1 UNK         0.0546 
    103 H103       25.4285  -50.6635  -52.8222 H         1 UNK         0.0828 
    104 H104       23.9341  -50.1260  -53.5786 H         1 UNK         0.0828 
    105 H105       24.5468  -49.2826  -52.1724 H         1 UNK         0.0828 
    106 H106       27.7391  -48.7316  -53.7255 H         1 UNK         0.3005 
    107 H107       28.8303  -46.6567  -52.7573 H         1 UNK         0.1257 
    108 H108       27.9999  -46.5586  -49.8128 H         1 UNK         0.0775 
    109 H109       27.7740  -45.2516  -50.9421 H         1 UNK         0.0775 
    110 H110       29.4786  -43.2285  -50.8167 H         1 UNK         0.0840 
    111 H111       31.1605  -43.5141  -51.1888 H         1 UNK         0.0840 
    112 H112       29.3440  -48.5104  -50.6010 H         1 UNK         0.2987 
    113 H113       31.1028  -49.9768  -51.0320 H         1 UNK         0.0785 
    114 H114       30.2010  -52.3126  -51.1222 H         1 UNK         0.0798 
    115 H115       29.0915  -51.8503  -52.4139 H         1 UNK         0.0798 
    116 H116       28.9085  -51.1695  -50.8043 H         1 UNK         0.0798 
    117 H117       31.3642  -51.6741  -53.3426 H         1 UNK         0.3079 
    118 H118       33.6293  -51.7846  -54.1918 H         1 UNK         0.0794 
    119 H119       31.7596  -51.1707  -55.7243 H         1 UNK         0.0786 
    120 H120       33.2829  -51.0517  -56.5843 H         1 UNK         0.0786 
    121 H121       32.4706  -49.5917  -56.0166 H         1 UNK         0.0786 
    122 H122       34.8067  -49.3361  -55.2638 H         1 UNK         0.3032 
    123 H123       37.5208  -49.1527  -53.0700 H         1 UNK         0.1094 
    124 H124       38.9116  -49.3269  -55.1308 H         1 UNK         0.0794 
    125 H125       38.3834  -50.9159  -54.6037 H         1 UNK         0.0794 
    126 H126       37.5970  -50.1468  -55.9748 H         1 UNK         0.0794 
    127 H127       36.6291  -47.9061  -55.5746 H         1 UNK         0.3016 
@<TRIPOS>BOND
     1    1    2 1    
     2    1   67 1    
     3    1   68 1    
     4    1   69 1    
     5    2    3 2    
     6    2    4 am   BACKBONE|DICT|INTERRES
     7    4    5 1    
     8    4   70 1    
     9    5    6 1    
    10    5   65 1    
    11    5   71 1    
    12    6    7 1    
    13    6   72 1    
    14    6   73 1    
    15    7    8 1    
    16    8    9 1    
    17    8   74 1    
    18    8   75 1    
    19    9   10 ar   
    20    9   14 ar   
    21   10   11 ar   
    22   10   76 1    
    23   11   12 ar   
    24   11   48 1    
    25   12   13 ar   
    26   12   77 1    
    27   13   14 ar   
    28   13   15 1    
    29   14   78 1    
    30   15   16 1    
    31   15   79 1    
    32   15   80 1    
    33   16   17 1    
    34   17   18 1    
    35   17   81 1    
    36   17   82 1    
    37   18   19 1    
    38   18   22 1    
    39   18   83 1    
    40   19   20 am   BACKBONE|DICT|INTERRES
    41   19   21 2    
    42   20   84 1    
    43   20   85 1    
    44   22   23 am   BACKBONE|DICT|INTERRES
    45   22   86 1    
    46   23   24 2    
    47   23   25 1    
    48   25   26 1    
    49   25   27 1    
    50   25   87 1    
    51   26   88 1    
    52   26   89 1    
    53   26   90 1    
    54   27   28 am   BACKBONE|DICT|INTERRES
    55   27   91 1    
    56   28   29 2    
    57   28   30 1    
    58   30   31 1    
    59   30   32 1    
    60   30   92 1    
    61   31   93 1    
    62   31   94 1    
    63   31   95 1    
    64   32   33 am   BACKBONE|DICT|INTERRES
    65   32   96 1    
    66   33   34 2    
    67   33   35 1    
    68   35   36 1    
    69   35   37 1    
    70   35   97 1    
    71   36   98 1    
    72   36   99 1    
    73   36  100 1    
    74   37   38 am   BACKBONE|DICT|INTERRES
    75   37  101 1    
    76   38   39 2    
    77   38   40 1    
    78   40   41 1    
    79   40   42 1    
    80   40  102 1    
    81   41  103 1    
    82   41  104 1    
    83   41  105 1    
    84   42   43 am   BACKBONE|DICT|INTERRES
    85   42  106 1    
    86   43   44 2    
    87   43   45 1    
    88   45   46 1    
    89   45   49 1    
    90   45  107 1    
    91   46   47 1    
    92   46  108 1    
    93   46  109 1    
    94   47   48 1    
    95   48  110 1    
    96   48  111 1    
    97   49   50 am   BACKBONE|DICT|INTERRES
    98   49  112 1    
    99   50   51 2    
   100   50   52 1    
   101   52   53 1    
   102   52   54 1    
   103   52  113 1    
   104   53  114 1    
   105   53  115 1    
   106   53  116 1    
   107   54   55 am   BACKBONE|DICT|INTERRES
   108   54  117 1    
   109   55   56 2    
   110   55   57 1    
   111   57   58 1    
   112   57   59 1    
   113   57  118 1    
   114   58  119 1    
   115   58  120 1    
   116   58  121 1    
   117   59   60 am   BACKBONE|DICT|INTERRES
   118   59  122 1    
   119   60   61 2    
   120   60   62 1    
   121   62   63 1    
   122   62   64 1    
   123   62  123 1    
   124   63  124 1    
   125   63  125 1    
   126   63  126 1    
   127   64   65 am   BACKBONE|DICT|INTERRES
   128   64  127 1    
   129   65   66 2    
@<TRIPOS>SUBSTRUCTURE
     1 UNK         1 GROUP             0       ****    0 ROOT    
