@<TRIPOS>MOLECULE
3R134
127   129    1
SMALL
USER_CHARGES


@<TRIPOS>ATOM
      1 CA         38.6278  -43.1722  -52.7531 C.3       0 UNK        -0.1968 
      2 C          37.9989  -43.9579  -53.8948 C.2       0 UNK         0.4852 
      3 O          38.7048  -44.6829  -54.5987 O.2       0 UNK        -0.5359 
      4 N          36.6820  -43.8116  -54.0872 N.am      1 UNK        -0.4300 
      5 CA         35.8895  -44.5374  -55.0844 C.3       1 UNK         0.0863 
      6 C6         34.6561  -43.7110  -55.5335 C.3       11 UNK        -0.0953 
      7 S7         33.4625  -43.3329  -54.2037 S.3       11 UNK        -0.2369 
      8 C8         31.9774  -44.1422  -54.8668 C.3       11 UNK         0.0226 
      9 C9         30.7695  -43.9038  -53.9788 C.ar      11 UNK        -0.0699 
     10 C10        30.4894  -44.7735  -52.9222 C.ar      11 UNK        -0.0804 
     11 C11        29.3831  -44.5538  -52.0930 C.ar      11 UNK        -0.0871 
     12 C12        28.5564  -43.4506  -52.3348 C.ar      11 UNK        -0.1008 
     13 C13        28.8328  -42.5692  -53.3853 C.ar      11 UNK        -0.0735 
     14 C14        29.9384  -42.8047  -54.2068 C.ar      11 UNK        -0.0945 
     15 C15        27.9686  -41.3343  -53.6032 C.3       11 UNK         0.0169 
     16 S16        26.4051  -41.7160  -54.4531 S.3       11 UNK        -0.2669 
     17 C17        26.9786  -42.2546  -56.1025 C.3       11 UNK        -0.0850 
     18 CA         26.8782  -43.7927  -56.2908 C.3       10 UNK         0.0855 
     19 C          25.4293  -44.2403  -56.6535 C.2       10 UNK         0.5543 
     20 N          25.1663  -44.6942  -57.8738 N.am      10 UNK        -0.7343 
     21 O          24.5348  -44.1963  -55.8140 O.2       10 UNK        -0.5027 
     22 N          27.9099  -44.2891  -57.2201 N.am      10 UNK        -0.4495 
     23 C          28.3478  -45.5532  -57.2293 C.2       10 UNK         0.4903 
     24 O          27.9968  -46.4048  -56.4102 O.2       10 UNK        -0.4860 
     25 CA         29.3340  -45.9397  -58.3371 C.3       9 UNK         0.0227 
     26 CB         30.7371  -45.3674  -58.0676 C.3       9 UNK        -0.1964 
     27 N          29.3952  -47.3964  -58.3985 N.am      9 UNK        -0.4231 
     28 C          29.8355  -48.1307  -59.4250 C.2       9 UNK         0.5014 
     29 O          30.2547  -47.6564  -60.4816 O.2       9 UNK        -0.5270 
     30 CA         29.8103  -49.6553  -59.2393 C.3       8 UNK         0.0284 
     31 CB         31.0990  -50.1262  -58.5490 C.3       8 UNK        -0.1977 
     32 N          28.6454  -50.1028  -58.4680 N.am      8 UNK        -0.4342 
     33 C          27.4437  -50.3440  -59.0104 C.2       8 UNK         0.5039 
     34 O          27.2004  -50.2319  -60.2127 O.2       8 UNK        -0.5547 
     35 CA         26.3152  -50.7564  -58.0588 C.3       7 UNK         0.0281 
     36 CB         26.6134  -52.0802  -57.3345 C.3       7 UNK        -0.1963 
     37 N          26.0698  -49.6933  -57.0877 N.am      7 UNK        -0.4444 
     38 C          24.8650  -49.1991  -56.7757 C.2       7 UNK         0.5104 
     39 O          23.8085  -49.6343  -57.2372 O.2       7 UNK        -0.5100 
     40 CA         24.8297  -47.9926  -55.8161 C.3       6 UNK         0.0396 
     41 CB         23.5713  -47.9657  -54.9231 C.3       6 UNK        -0.1801 
     42 N          26.0586  -47.8260  -55.0310 N.am      6 UNK        -0.4747 
     43 C          26.5184  -48.6192  -54.0559 C.2       6 UNK         0.5012 
     44 O          25.9193  -49.6067  -53.6237 O.2       6 UNK        -0.5003 
     45 CA         27.8912  -48.2465  -53.4628 C.3       5 UNK         0.0782 
     46 C46        27.7076  -47.6224  -52.0564 C.3       11 UNK        -0.0868 
     47 S47        29.2871  -47.2306  -51.2315 S.3       11 UNK        -0.2515 
     48 C48        29.1224  -45.4479  -50.8845 C.3       11 UNK         0.0199 
     49 N          28.7769  -49.4123  -53.4412 N.am      5 UNK        -0.4607 
     50 C          29.1943  -50.1144  -54.5010 C.2       4 UNK         0.5031 
     51 O          28.8946  -49.8504  -55.6701 O.2       4 UNK        -0.5119 
     52 CA         30.1409  -51.2871  -54.1815 C.3       4 UNK         0.0263 
     53 CB         30.4012  -52.2068  -55.3870 C.3       4 UNK        -0.1967 
     54 N          31.4230  -50.7905  -53.6803 N.am      4 UNK        -0.4237 
     55 C          31.6587  -50.3823  -52.4257 C.2       3 UNK         0.4908 
     56 O          30.8239  -50.4582  -51.5230 O.2       3 UNK        -0.5102 
     57 CA         33.0486  -49.7960  -52.1142 C.3       3 UNK         0.0241 
     58 CB         33.8725  -50.7863  -51.2741 C.3       3 UNK        -0.1971 
     59 N          33.8211  -49.4219  -53.3048 N.am      3 UNK        -0.4139 
     60 C          33.5779  -48.3457  -54.0655 C.2       2 UNK         0.5016 
     61 O          32.6471  -47.5626  -53.8729 O.2       2 UNK        -0.5319 
     62 CA         34.5093  -48.1436  -55.2756 C.3       2 UNK         0.0286 
     63 CB         33.8369  -48.6744  -56.5529 C.3       2 UNK        -0.1963 
     64 N          34.8949  -46.7447  -55.4915 N.am      2 UNK        -0.4790 
     65 C          35.5394  -45.9682  -54.6078 C.2       1 UNK         0.5024 
     66 O          35.8730  -46.3511  -53.4823 O.2       1 UNK        -0.4888 
     67 H67        39.4066  -42.5127  -53.1351 H         1 UNK         0.0892 
     68 H68        37.8950  -42.5613  -52.2261 H         1 UNK         0.0892 
     69 H69        39.0804  -43.8543  -52.0338 H         1 UNK         0.0892 
     70 H70        36.1464  -43.2310  -53.4575 H         1 UNK         0.3107 
     71 H71        36.5161  -44.6657  -55.9700 H         1 UNK         0.0773 
     72 H72        34.1465  -44.2066  -56.3613 H         1 UNK         0.0680 
     73 H73        34.9947  -42.7586  -55.9443 H         1 UNK         0.0680 
     74 H74        32.1616  -45.2113  -54.9754 H         1 UNK         0.0650 
     75 H75        31.7814  -43.7524  -55.8657 H         1 UNK         0.0650 
     76 H76        31.1466  -45.6129  -52.7373 H         1 UNK         0.1397 
     77 H77        27.7094  -43.2580  -51.6902 H         1 UNK         0.1363 
     78 H78        30.1657  -42.1223  -55.0142 H         1 UNK         0.1355 
     79 H79        28.5122  -40.5759  -54.1691 H         1 UNK         0.0707 
     80 H80        27.7391  -40.8812  -52.6377 H         1 UNK         0.0707 
     81 H81        26.4089  -41.7253  -56.8688 H         1 UNK         0.1034 
     82 H82        28.0086  -41.9209  -56.2317 H         1 UNK         0.1034 
     83 H83        27.0969  -44.2501  -55.3230 H         1 UNK         0.0482 
     84 H84        24.2266  -44.9776  -58.1015 H         1 UNK         0.3460 
     85 H85        25.8882  -44.7334  -58.5745 H         1 UNK         0.3460 
     86 H86        28.2288  -43.6469  -57.9309 H         1 UNK         0.2989 
     87 H87        28.9522  -45.5562  -59.2854 H         1 UNK         0.0559 
     88 H88        30.7104  -44.2820  -57.9677 H         1 UNK         0.0848 
     89 H89        31.1626  -45.7792  -57.1524 H         1 UNK         0.0848 
     90 H90        31.4232  -45.5960  -58.8832 H         1 UNK         0.0848 
     91 H91        29.0380  -47.8553  -57.5691 H         1 UNK         0.3144 
     92 H92        29.7810  -50.1096  -60.2323 H         1 UNK         0.0727 
     93 H93        31.1498  -51.2142  -58.5110 H         1 UNK         0.0790 
     94 H94        31.1700  -49.7436  -57.5306 H         1 UNK         0.0790 
     95 H95        31.9818  -49.7820  -59.0898 H         1 UNK         0.0790 
     96 H96        28.7639  -50.1824  -57.4586 H         1 UNK         0.3215 
     97 H97        25.4285  -50.9097  -58.6782 H         1 UNK         0.0863 
     98 H98        26.9017  -52.8600  -58.0406 H         1 UNK         0.0808 
     99 H99        27.4187  -51.9744  -56.6098 H         1 UNK         0.0808 
    100 H100       25.7343  -52.4368  -56.7977 H         1 UNK         0.0808 
    101 H101       26.8829  -49.2830  -56.6465 H         1 UNK         0.3118 
    102 H102       24.7790  -47.1181  -56.4632 H         1 UNK         0.0546 
    103 H103       22.6655  -47.9110  -55.5280 H         1 UNK         0.0828 
    104 H104       23.5710  -47.0959  -54.2663 H         1 UNK         0.0828 
    105 H105       23.4902  -48.8586  -54.3032 H         1 UNK         0.0828 
    106 H106       26.6844  -47.0991  -55.3764 H         1 UNK         0.3005 
    107 H107       28.3695  -47.5020  -54.1023 H         1 UNK         0.1257 
    108 H108       27.1580  -48.3027  -51.4025 H         1 UNK         0.0775 
    109 H109       27.1036  -46.7155  -52.1269 H         1 UNK         0.0775 
    110 H110       28.1362  -45.2564  -50.4586 H         1 UNK         0.0840 
    111 H111       29.8428  -45.1839  -50.1092 H         1 UNK         0.0840 
    112 H112       29.1340  -49.6767  -52.5303 H         1 UNK         0.2987 
    113 H113       29.6620  -51.8908  -53.4073 H         1 UNK         0.0785 
    114 H114       29.4702  -52.6016  -55.7918 H         1 UNK         0.0798 
    115 H115       31.0125  -53.0633  -55.1022 H         1 UNK         0.0798 
    116 H116       30.9176  -51.6859  -56.1903 H         1 UNK         0.0798 
    117 H117       32.1572  -50.6707  -54.3611 H         1 UNK         0.3079 
    118 H118       32.8872  -48.8949  -51.5180 H         1 UNK         0.0794 
    119 H119       33.3430  -51.0580  -50.3596 H         1 UNK         0.0786 
    120 H120       34.8280  -50.3546  -50.9750 H         1 UNK         0.0786 
    121 H121       34.0748  -51.7092  -51.8192 H         1 UNK         0.0786 
    122 H122       34.6024  -50.0190  -53.5370 H         1 UNK         0.3032 
    123 H123       35.4290  -48.7080  -55.1058 H         1 UNK         0.1094 
    124 H124       34.5027  -48.6047  -57.4134 H         1 UNK         0.0794 
    125 H125       33.5616  -49.7244  -56.4459 H         1 UNK         0.0794 
    126 H126       32.9269  -48.1194  -56.7865 H         1 UNK         0.0794 
    127 H127       34.6470  -46.3509  -56.3870 H         1 UNK         0.3016 
@<TRIPOS>BOND
     1    1    2 1    
     2    1   67 1    
     3    1   68 1    
     4    1   69 1    
     5    2    3 2    
     6    2    4 am   BACKBONE|DICT|INTERRES
     7    4    5 1    
     8    4   70 1    
     9    5    6 1    
    10    5   65 1    
    11    5   71 1    
    12    6    7 1    
    13    6   72 1    
    14    6   73 1    
    15    7    8 1    
    16    8    9 1    
    17    8   74 1    
    18    8   75 1    
    19    9   10 ar   
    20    9   14 ar   
    21   10   11 ar   
    22   10   76 1    
    23   11   12 ar   
    24   11   48 1    
    25   12   13 ar   
    26   12   77 1    
    27   13   14 ar   
    28   13   15 1    
    29   14   78 1    
    30   15   16 1    
    31   15   79 1    
    32   15   80 1    
    33   16   17 1    
    34   17   18 1    
    35   17   81 1    
    36   17   82 1    
    37   18   19 1    
    38   18   22 1    
    39   18   83 1    
    40   19   20 am   BACKBONE|DICT|INTERRES
    41   19   21 2    
    42   20   84 1    
    43   20   85 1    
    44   22   23 am   BACKBONE|DICT|INTERRES
    45   22   86 1    
    46   23   24 2    
    47   23   25 1    
    48   25   26 1    
    49   25   27 1    
    50   25   87 1    
    51   26   88 1    
    52   26   89 1    
    53   26   90 1    
    54   27   28 am   BACKBONE|DICT|INTERRES
    55   27   91 1    
    56   28   29 2    
    57   28   30 1    
    58   30   31 1    
    59   30   32 1    
    60   30   92 1    
    61   31   93 1    
    62   31   94 1    
    63   31   95 1    
    64   32   33 am   BACKBONE|DICT|INTERRES
    65   32   96 1    
    66   33   34 2    
    67   33   35 1    
    68   35   36 1    
    69   35   37 1    
    70   35   97 1    
    71   36   98 1    
    72   36   99 1    
    73   36  100 1    
    74   37   38 am   BACKBONE|DICT|INTERRES
    75   37  101 1    
    76   38   39 2    
    77   38   40 1    
    78   40   41 1    
    79   40   42 1    
    80   40  102 1    
    81   41  103 1    
    82   41  104 1    
    83   41  105 1    
    84   42   43 am   BACKBONE|DICT|INTERRES
    85   42  106 1    
    86   43   44 2    
    87   43   45 1    
    88   45   46 1    
    89   45   49 1    
    90   45  107 1    
    91   46   47 1    
    92   46  108 1    
    93   46  109 1    
    94   47   48 1    
    95   48  110 1    
    96   48  111 1    
    97   49   50 am   BACKBONE|DICT|INTERRES
    98   49  112 1    
    99   50   51 2    
   100   50   52 1    
   101   52   53 1    
   102   52   54 1    
   103   52  113 1    
   104   53  114 1    
   105   53  115 1    
   106   53  116 1    
   107   54   55 am   BACKBONE|DICT|INTERRES
   108   54  117 1    
   109   55   56 2    
   110   55   57 1    
   111   57   58 1    
   112   57   59 1    
   113   57  118 1    
   114   58  119 1    
   115   58  120 1    
   116   58  121 1    
   117   59   60 am   BACKBONE|DICT|INTERRES
   118   59  122 1    
   119   60   61 2    
   120   60   62 1    
   121   62   63 1    
   122   62   64 1    
   123   62  123 1    
   124   63  124 1    
   125   63  125 1    
   126   63  126 1    
   127   64   65 am   BACKBONE|DICT|INTERRES
   128   64  127 1    
   129   65   66 2    
@<TRIPOS>SUBSTRUCTURE
     1 UNK         1 GROUP             0       ****    0 ROOT    
