@<TRIPOS>MOLECULE
3R134
127   129    1
SMALL
USER_CHARGES


@<TRIPOS>ATOM
      1 CA         39.6837  -44.7064  -54.9105 C.3       0 UNK        -0.1968 
      2 C          38.3411  -45.4216  -54.9321 C.2       0 UNK         0.4852 
      3 O          38.1517  -46.3455  -55.7262 O.2       0 UNK        -0.5359 
      4 N          37.4066  -45.0094  -54.0645 N.am      1 UNK        -0.4300 
      5 CA         36.0693  -45.5925  -53.9198 C.3       1 UNK         0.0863 
      6 C6         35.0675  -44.5587  -53.3424 C.3       11 UNK        -0.0953 
      7 S7         33.3341  -45.0194  -53.6698 S.3       11 UNK        -0.2369 
      8 C8         32.5239  -43.4009  -53.5129 C.3       11 UNK         0.0226 
      9 C9         31.0133  -43.5374  -53.6130 C.ar      11 UNK        -0.0699 
     10 C10        30.2415  -43.6868  -52.4573 C.ar      11 UNK        -0.0804 
     11 C11        28.8519  -43.8154  -52.5426 C.ar      11 UNK        -0.0871 
     12 C12        28.2341  -43.7972  -53.7975 C.ar      11 UNK        -0.1008 
     13 C13        28.9979  -43.6505  -54.9598 C.ar      11 UNK        -0.0735 
     14 C14        30.3859  -43.5164  -54.8613 C.ar      11 UNK        -0.0945 
     15 C15        28.3311  -43.6664  -56.3249 C.3       11 UNK         0.0169 
     16 S16        27.5384  -42.0777  -56.7091 S.3       11 UNK        -0.2669 
     17 C17        27.4348  -42.1574  -58.5314 C.3       11 UNK        -0.0850 
     18 CA         26.1736  -42.9040  -59.0405 C.3       10 UNK         0.0855 
     19 C          25.9069  -42.6030  -60.5448 C.2       10 UNK         0.5543 
     20 N          25.9006  -43.5895  -61.4339 N.am      10 UNK        -0.7343 
     21 O          25.6893  -41.4505  -60.9102 O.2       10 UNK        -0.5027 
     22 N          26.2403  -44.3428  -58.7347 N.am      10 UNK        -0.4495 
     23 C          25.1902  -45.1203  -58.4579 C.2       10 UNK         0.4903 
     24 O          24.0378  -44.6965  -58.3626 O.2       10 UNK        -0.4860 
     25 CA         25.4392  -46.6266  -58.2500 C.3       9 UNK         0.0227 
     26 CB         25.0771  -47.4197  -59.5203 C.3       9 UNK        -0.1964 
     27 N          26.7677  -47.0204  -57.7551 N.am      9 UNK        -0.4231 
     28 C          27.9672  -46.9333  -58.3506 C.2       9 UNK         0.5014 
     29 O          28.1723  -46.3089  -59.3919 O.2       9 UNK        -0.5270 
     30 CA         29.1346  -47.6852  -57.6812 C.3       8 UNK         0.0284 
     31 CB         29.8524  -46.8070  -56.6457 C.3       8 UNK        -0.1977 
     32 N          28.7134  -48.9316  -57.0388 N.am      8 UNK        -0.4342 
     33 C          28.2650  -50.0183  -57.6835 C.2       8 UNK         0.5039 
     34 O          28.2160  -50.1223  -58.9096 O.2       8 UNK        -0.5547 
     35 CA         27.7673  -51.1776  -56.8077 C.3       7 UNK         0.0281 
     36 CB         28.9417  -52.0304  -56.2984 C.3       7 UNK        -0.1963 
     37 N          26.9819  -50.6858  -55.6741 N.am      7 UNK        -0.4444 
     38 C          25.6889  -50.3396  -55.7451 C.2       7 UNK         0.5104 
     39 O          25.0013  -50.4618  -56.7588 O.2       7 UNK        -0.5100 
     40 CA         25.0470  -49.7570  -54.4721 C.3       6 UNK         0.0396 
     41 CB         24.3640  -50.8694  -53.6611 C.3       6 UNK        -0.1801 
     42 N          25.9945  -49.0438  -53.6107 N.am      6 UNK        -0.4747 
     43 C          26.5650  -47.8689  -53.9161 C.2       6 UNK         0.5012 
     44 O          26.3447  -47.2533  -54.9579 O.2       6 UNK        -0.5003 
     45 CA         27.5940  -47.3145  -52.9103 C.3       5 UNK         0.0782 
     46 C46        26.8728  -46.4857  -51.8203 C.3       11 UNK        -0.0868 
     47 S47        28.0273  -45.6779  -50.6624 S.3       11 UNK        -0.2515 
     48 C48        28.0263  -43.9624  -51.2730 C.3       11 UNK         0.0199 
     49 N          28.4638  -48.3563  -52.3432 N.am      5 UNK        -0.4607 
     50 C          29.2339  -49.1826  -53.0615 C.2       4 UNK         0.5031 
     51 O          29.2292  -49.2196  -54.2941 O.2       4 UNK        -0.5119 
     52 CA         30.1029  -50.1803  -52.2803 C.3       4 UNK         0.0263 
     53 CB         29.2845  -51.4348  -51.9329 C.3       4 UNK        -0.1967 
     54 N          31.2697  -50.5776  -53.0710 N.am      4 UNK        -0.4237 
     55 C          32.3132  -49.7784  -53.3248 C.2       3 UNK         0.4908 
     56 O          32.4794  -48.6757  -52.7987 O.2       3 UNK        -0.5102 
     57 CA         33.3013  -50.2813  -54.3897 C.3       3 UNK         0.0241 
     58 CB         32.7998  -49.9061  -55.7956 C.3       3 UNK        -0.1971 
     59 N          34.6355  -49.7133  -54.1992 N.am      3 UNK        -0.4139 
     60 C          35.5052  -50.0884  -53.2518 C.2       2 UNK         0.5016 
     61 O          35.3104  -51.0230  -52.4729 O.2       2 UNK        -0.5319 
     62 CA         36.8242  -49.2980  -53.1659 C.3       2 UNK         0.0286 
     63 CB         37.9529  -50.0519  -53.8878 C.3       2 UNK        -0.1963 
     64 N          36.7171  -47.9475  -53.7273 N.am      2 UNK        -0.4790 
     65 C          36.1411  -46.9077  -53.1097 C.2       1 UNK         0.5024 
     66 O          35.7198  -46.9569  -51.9528 O.2       1 UNK        -0.4888 
     67 H67        39.8891  -44.2658  -55.8858 H         1 UNK         0.0892 
     68 H68        39.7106  -43.9105  -54.1666 H         1 UNK         0.0892 
     69 H69        40.4808  -45.4129  -54.6807 H         1 UNK         0.0892 
     70 H70        37.6307  -44.2685  -53.4151 H         1 UNK         0.3107 
     71 H71        35.7173  -45.8538  -54.9208 H         1 UNK         0.0773 
     72 H72        35.2104  -44.4056  -52.2711 H         1 UNK         0.0680 
     73 H73        35.2392  -43.5875  -53.8098 H         1 UNK         0.0680 
     74 H74        32.8928  -42.7320  -54.2921 H         1 UNK         0.0650 
     75 H75        32.7989  -42.9490  -52.5585 H         1 UNK         0.0650 
     76 H76        30.7235  -43.7083  -51.4893 H         1 UNK         0.1397 
     77 H77        27.1601  -43.8991  -53.8744 H         1 UNK         0.1363 
     78 H78        30.9823  -43.4073  -55.7569 H         1 UNK         0.1355 
     79 H79        29.0628  -43.9014  -57.0981 H         1 UNK         0.0707 
     80 H80        27.5832  -44.4595  -56.3496 H         1 UNK         0.0707 
     81 H81        27.4312  -41.1231  -58.8814 H         1 UNK         0.1034 
     82 H82        28.3431  -42.6015  -58.9424 H         1 UNK         0.1034 
     83 H83        25.3175  -42.4819  -58.5105 H         1 UNK         0.0482 
     84 H84        25.7211  -43.3811  -62.4035 H         1 UNK         0.3460 
     85 H85        26.0838  -44.5369  -61.1446 H         1 UNK         0.3460 
     86 H86        27.1309  -44.8053  -58.8903 H         1 UNK         0.2989 
     87 H87        24.7466  -46.9382  -57.4663 H         1 UNK         0.0559 
     88 H88        24.0566  -47.2040  -59.8395 H         1 UNK         0.0848 
     89 H89        25.1408  -48.4941  -59.3448 H         1 UNK         0.0848 
     90 H90        25.7365  -47.1774  -60.3541 H         1 UNK         0.0848 
     91 H91        26.7473  -47.4256  -56.8226 H         1 UNK         0.3144 
     92 H92        29.8520  -47.9423  -58.4633 H         1 UNK         0.0727 
     93 H93        29.1794  -46.4904  -55.8485 H         1 UNK         0.0790 
     94 H94        30.2665  -45.9133  -57.1123 H         1 UNK         0.0790 
     95 H95        30.6833  -47.3384  -56.1813 H         1 UNK         0.0790 
     96 H96        28.7906  -48.9714  -56.0229 H         1 UNK         0.3215 
     97 H97        27.1335  -51.8163  -57.4273 H         1 UNK         0.0863 
     98 H98        28.5882  -52.8871  -55.7244 H         1 UNK         0.0808 
     99 H99        29.6181  -51.4588  -55.6638 H         1 UNK         0.0808 
    100 H100       29.5287  -52.4191  -57.1316 H         1 UNK         0.0808 
    101 H101       27.4884  -50.4865  -54.8222 H         1 UNK         0.3118 
    102 H102       24.2791  -49.0474  -54.7880 H         1 UNK         0.0546 
    103 H103       25.0820  -51.6061  -53.2984 H         1 UNK         0.0828 
    104 H104       23.6315  -51.4017  -54.2697 H         1 UNK         0.0828 
    105 H105       23.8323  -50.4645  -52.7999 H         1 UNK         0.0828 
    106 H106       26.2392  -49.4829  -52.7346 H         1 UNK         0.3005 
    107 H107       28.2447  -46.6420  -53.4735 H         1 UNK         0.1257 
    108 H108       26.2082  -47.1238  -51.2346 H         1 UNK         0.0775 
    109 H109       26.2328  -45.7261  -52.2735 H         1 UNK         0.0775 
    110 H110       27.0021  -43.6212  -51.4316 H         1 UNK         0.0840 
    111 H111       28.4389  -43.3160  -50.4969 H         1 UNK         0.0840 
    112 H112       28.5181  -48.3825  -51.3350 H         1 UNK         0.2987 
    113 H113       30.4460  -49.7073  -51.3575 H         1 UNK         0.0785 
    114 H114       28.4217  -51.1830  -51.3149 H         1 UNK         0.0798 
    115 H115       29.8815  -52.1538  -51.3714 H         1 UNK         0.0798 
    116 H116       28.9103  -51.9360  -52.8268 H         1 UNK         0.0798 
    117 H117       31.1955  -51.4509  -53.5712 H         1 UNK         0.3079 
    118 H118       33.3730  -51.3689  -54.3184 H         1 UNK         0.0794 
    119 H119       33.4604  -50.2955  -56.5705 H         1 UNK         0.0786 
    120 H120       32.7326  -48.8248  -55.9232 H         1 UNK         0.0786 
    121 H121       31.8060  -50.3142  -55.9836 H         1 UNK         0.0786 
    122 H122       34.8710  -48.9098  -54.7616 H         1 UNK         0.3032 
    123 H123       37.0872  -49.2183  -52.1084 H         1 UNK         0.1094 
    124 H124       37.7501  -50.1596  -54.9541 H         1 UNK         0.0794 
    125 H125       38.9074  -49.5367  -53.7778 H         1 UNK         0.0794 
    126 H126       38.0779  -51.0546  -53.4763 H         1 UNK         0.0794 
    127 H127       37.1256  -47.7844  -54.6427 H         1 UNK         0.3016 
@<TRIPOS>BOND
     1    1    2 1    
     2    1   67 1    
     3    1   68 1    
     4    1   69 1    
     5    2    3 2    
     6    2    4 am   BACKBONE|DICT|INTERRES
     7    4    5 1    
     8    4   70 1    
     9    5    6 1    
    10    5   65 1    
    11    5   71 1    
    12    6    7 1    
    13    6   72 1    
    14    6   73 1    
    15    7    8 1    
    16    8    9 1    
    17    8   74 1    
    18    8   75 1    
    19    9   10 ar   
    20    9   14 ar   
    21   10   11 ar   
    22   10   76 1    
    23   11   12 ar   
    24   11   48 1    
    25   12   13 ar   
    26   12   77 1    
    27   13   14 ar   
    28   13   15 1    
    29   14   78 1    
    30   15   16 1    
    31   15   79 1    
    32   15   80 1    
    33   16   17 1    
    34   17   18 1    
    35   17   81 1    
    36   17   82 1    
    37   18   19 1    
    38   18   22 1    
    39   18   83 1    
    40   19   20 am   BACKBONE|DICT|INTERRES
    41   19   21 2    
    42   20   84 1    
    43   20   85 1    
    44   22   23 am   BACKBONE|DICT|INTERRES
    45   22   86 1    
    46   23   24 2    
    47   23   25 1    
    48   25   26 1    
    49   25   27 1    
    50   25   87 1    
    51   26   88 1    
    52   26   89 1    
    53   26   90 1    
    54   27   28 am   BACKBONE|DICT|INTERRES
    55   27   91 1    
    56   28   29 2    
    57   28   30 1    
    58   30   31 1    
    59   30   32 1    
    60   30   92 1    
    61   31   93 1    
    62   31   94 1    
    63   31   95 1    
    64   32   33 am   BACKBONE|DICT|INTERRES
    65   32   96 1    
    66   33   34 2    
    67   33   35 1    
    68   35   36 1    
    69   35   37 1    
    70   35   97 1    
    71   36   98 1    
    72   36   99 1    
    73   36  100 1    
    74   37   38 am   BACKBONE|DICT|INTERRES
    75   37  101 1    
    76   38   39 2    
    77   38   40 1    
    78   40   41 1    
    79   40   42 1    
    80   40  102 1    
    81   41  103 1    
    82   41  104 1    
    83   41  105 1    
    84   42   43 am   BACKBONE|DICT|INTERRES
    85   42  106 1    
    86   43   44 2    
    87   43   45 1    
    88   45   46 1    
    89   45   49 1    
    90   45  107 1    
    91   46   47 1    
    92   46  108 1    
    93   46  109 1    
    94   47   48 1    
    95   48  110 1    
    96   48  111 1    
    97   49   50 am   BACKBONE|DICT|INTERRES
    98   49  112 1    
    99   50   51 2    
   100   50   52 1    
   101   52   53 1    
   102   52   54 1    
   103   52  113 1    
   104   53  114 1    
   105   53  115 1    
   106   53  116 1    
   107   54   55 am   BACKBONE|DICT|INTERRES
   108   54  117 1    
   109   55   56 2    
   110   55   57 1    
   111   57   58 1    
   112   57   59 1    
   113   57  118 1    
   114   58  119 1    
   115   58  120 1    
   116   58  121 1    
   117   59   60 am   BACKBONE|DICT|INTERRES
   118   59  122 1    
   119   60   61 2    
   120   60   62 1    
   121   62   63 1    
   122   62   64 1    
   123   62  123 1    
   124   63  124 1    
   125   63  125 1    
   126   63  126 1    
   127   64   65 am   BACKBONE|DICT|INTERRES
   128   64  127 1    
   129   65   66 2    
@<TRIPOS>SUBSTRUCTURE
     1 UNK         1 GROUP             0       ****    0 ROOT    
