@<TRIPOS>MOLECULE
3R134
127   129    1
SMALL
USER_CHARGES


@<TRIPOS>ATOM
      1 CA         36.7941  -42.8701  -54.6739 C.3       0 UNK        -0.1968 
      2 C          35.9617  -43.8683  -55.4655 C.2       0 UNK         0.4852 
      3 O          35.3636  -43.4967  -56.4762 O.2       0 UNK        -0.5359 
      4 N          35.9195  -45.1264  -55.0124 N.am      1 UNK        -0.4300 
      5 CA         35.1966  -46.2256  -55.6592 C.3       1 UNK         0.0863 
      6 C6         33.6506  -46.1443  -55.5053 C.3       11 UNK        -0.0953 
      7 S7         33.0359  -46.3064  -53.7908 S.3       11 UNK        -0.2369 
      8 C8         32.8330  -44.5758  -53.2744 C.3       11 UNK         0.0226 
      9 C9         31.4469  -44.0349  -53.5898 C.ar      11 UNK        -0.0699 
     10 C10        30.4256  -44.1315  -52.6404 C.ar      11 UNK        -0.0804 
     11 C11        29.1664  -43.5726  -52.8859 C.ar      11 UNK        -0.0871 
     12 C12        28.9352  -42.9135  -54.0984 C.ar      11 UNK        -0.1008 
     13 C13        29.9486  -42.8135  -55.0575 C.ar      11 UNK        -0.0735 
     14 C14        31.1996  -43.3824  -54.7998 C.ar      11 UNK        -0.0945 
     15 C15        29.7223  -42.0414  -56.3489 C.3       11 UNK         0.0169 
     16 S16        28.8769  -43.0464  -57.6077 S.3       11 UNK        -0.2669 
     17 C17        27.1211  -42.5991  -57.3580 C.3       11 UNK        -0.0850 
     18 CA         26.2731  -43.7287  -56.7049 C.3       10 UNK         0.0855 
     19 C          24.8132  -43.2804  -56.3965 C.2       10 UNK         0.5543 
     20 N          23.8178  -44.1526  -56.5001 N.am      10 UNK        -0.7343 
     21 O          24.5794  -42.1331  -56.0245 O.2       10 UNK        -0.5027 
     22 N          26.3788  -45.0243  -57.3949 N.am      10 UNK        -0.4495 
     23 C          26.0823  -45.2979  -58.6723 C.2       10 UNK         0.4903 
     24 O          25.6505  -44.4703  -59.4765 O.2       10 UNK        -0.4860 
     25 CA         26.2920  -46.7621  -59.1068 C.3       9 UNK         0.0227 
     26 CB         26.3241  -46.9515  -60.6384 C.3       9 UNK        -0.1964 
     27 N          27.4595  -47.3692  -58.4564 N.am      9 UNK        -0.4231 
     28 C          28.7566  -47.0643  -58.6239 C.2       9 UNK         0.5014 
     29 O          29.1825  -46.2841  -59.4760 O.2       9 UNK        -0.5270 
     30 CA         29.7587  -47.7362  -57.6622 C.3       8 UNK         0.0284 
     31 CB         30.1777  -46.7429  -56.5643 C.3       8 UNK        -0.1977 
     32 N          29.2395  -48.9522  -57.0276 N.am      8 UNK        -0.4342 
     33 C          28.9689  -50.1014  -57.6633 C.2       8 UNK         0.5039 
     34 O          29.2132  -50.3030  -58.8531 O.2       8 UNK        -0.5547 
     35 CA         28.2641  -51.1930  -56.8417 C.3       7 UNK         0.0281 
     36 CB         29.2822  -52.0534  -56.0772 C.3       7 UNK        -0.1963 
     37 N          27.2932  -50.6233  -55.9032 N.am      7 UNK        -0.4444 
     38 C          26.0848  -50.1590  -56.2522 C.2       7 UNK         0.5104 
     39 O          25.6358  -50.2095  -57.3967 O.2       7 UNK        -0.5100 
     40 CA         25.2442  -49.4988  -55.1442 C.3       6 UNK         0.0396 
     41 CB         24.4035  -50.5528  -54.4070 C.3       6 UNK        -0.1801 
     42 N          26.0513  -48.7530  -54.1747 N.am      6 UNK        -0.4747 
     43 C          26.7397  -47.6361  -54.4557 C.2       6 UNK         0.5012 
     44 O          26.7342  -47.0951  -55.5597 O.2       6 UNK        -0.5003 
     45 CA         27.6189  -47.0539  -53.3301 C.3       5 UNK         0.0782 
     46 C46        26.8006  -46.0367  -52.4997 C.3       11 UNK        -0.0868 
     47 S47        27.7666  -45.2756  -51.1543 S.3       11 UNK        -0.2515 
     48 C48        28.0857  -43.6042  -51.8101 C.3       11 UNK         0.0199 
     49 N          28.2408  -48.1003  -52.5032 N.am      5 UNK        -0.4607 
     50 C          29.0638  -49.0472  -52.9713 C.2       4 UNK         0.5031 
     51 O          29.3471  -49.1716  -54.1653 O.2       4 UNK        -0.5119 
     52 CA         29.5905  -50.0745  -51.9561 C.3       4 UNK         0.0263 
     53 CB         28.5677  -51.2085  -51.7738 C.3       4 UNK        -0.1967 
     54 N          30.8576  -50.6480  -52.4135 N.am      4 UNK        -0.4237 
     55 C          32.0264  -49.9969  -52.3835 C.2       3 UNK         0.4908 
     56 O          32.1961  -48.9272  -51.7925 O.2       3 UNK        -0.5102 
     57 CA         33.1922  -50.6462  -53.1456 C.3       3 UNK         0.0241 
     58 CB         32.8194  -50.9633  -54.6097 C.3       3 UNK        -0.1971 
     59 N          34.3312  -49.7342  -53.1211 N.am      3 UNK        -0.4139 
     60 C          35.6180  -50.0705  -53.2628 C.2       2 UNK         0.5016 
     61 O          36.0093  -51.2306  -53.4082 O.2       2 UNK        -0.5319 
     62 CA         36.6307  -48.9052  -53.2454 C.3       2 UNK         0.0286 
     63 CB         38.0205  -49.3028  -53.7891 C.3       2 UNK        -0.1963 
     64 N          36.1260  -47.6993  -53.9217 N.am      2 UNK        -0.4790 
     65 C          35.7666  -47.5853  -55.2142 C.2       1 UNK         0.5024 
     66 O          35.8771  -48.4883  -56.0440 O.2       1 UNK        -0.4888 
     67 H67        37.5838  -42.4587  -55.3019 H         1 UNK         0.0892 
     68 H68        36.1665  -42.0474  -54.3325 H         1 UNK         0.0892 
     69 H69        37.2586  -43.3262  -53.7999 H         1 UNK         0.0892 
     70 H70        36.4870  -45.3842  -54.2182 H         1 UNK         0.3107 
     71 H71        35.4150  -46.1563  -56.7274 H         1 UNK         0.0773 
     72 H72        33.2776  -45.2158  -55.9364 H         1 UNK         0.0680 
     73 H73        33.1894  -46.9375  -56.0956 H         1 UNK         0.0680 
     74 H74        33.5968  -43.9514  -53.7373 H         1 UNK         0.0650 
     75 H75        33.0119  -44.5167  -52.1999 H         1 UNK         0.0650 
     76 H76        30.6190  -44.6221  -51.6962 H         1 UNK         0.1397 
     77 H77        27.9765  -42.4508  -54.2873 H         1 UNK         0.1363 
     78 H78        31.9916  -43.2903  -55.5302 H         1 UNK         0.1355 
     79 H79        29.1707  -41.1223  -56.1481 H         1 UNK         0.0707 
     80 H80        30.6810  -41.7220  -56.7606 H         1 UNK         0.0707 
     81 H81        26.7027  -42.3284  -58.3284 H         1 UNK         0.1034 
     82 H82        27.0643  -41.6901  -56.7578 H         1 UNK         0.1034 
     83 H83        26.7037  -43.9171  -55.7217 H         1 UNK         0.0482 
     84 H84        24.0008  -45.0994  -56.7903 H         1 UNK         0.3460 
     85 H85        22.8773  -43.8587  -56.2888 H         1 UNK         0.3460 
     86 H86        26.6617  -45.7991  -56.7981 H         1 UNK         0.2989 
     87 H87        25.4284  -47.3125  -58.7307 H         1 UNK         0.0559 
     88 H88        27.1102  -46.3580  -61.1059 H         1 UNK         0.0848 
     89 H89        25.3791  -46.6446  -61.0879 H         1 UNK         0.0848 
     90 H90        26.4861  -47.9956  -60.9059 H         1 UNK         0.0848 
     91 H91        27.2432  -47.9971  -57.6937 H         1 UNK         0.3144 
     92 H92        30.6447  -48.0120  -58.2374 H         1 UNK         0.0727 
     93 H93        30.8130  -47.2144  -55.8148 H         1 UNK         0.0790 
     94 H94        29.3151  -46.3205  -56.0494 H         1 UNK         0.0790 
     95 H95        30.7342  -45.9059  -56.9882 H         1 UNK         0.0790 
     96 H96        29.0969  -48.9173  -56.0202 H         1 UNK         0.3215 
     97 H97        27.7314  -51.8421  -57.5407 H         1 UNK         0.0863 
     98 H98        29.8370  -51.4670  -55.3465 H         1 UNK         0.0808 
     99 H99        30.0090  -52.4957  -56.7599 H         1 UNK         0.0808 
    100 H100       28.7928  -52.8721  -55.5495 H         1 UNK         0.0808 
    101 H101       27.6101  -50.4770  -54.9552 H         1 UNK         0.3118 
    102 H102       24.5611  -48.7942  -55.6236 H         1 UNK         0.0546 
    103 H103       23.7398  -50.0910  -53.6758 H         1 UNK         0.0828 
    104 H104       25.0283  -51.2780  -53.8840 H         1 UNK         0.0828 
    105 H105       23.7756  -51.1081  -55.1053 H         1 UNK         0.0828 
    106 H106       26.1088  -49.1282  -53.2389 H         1 UNK         0.3005 
    107 H107       28.4334  -46.5102  -53.8144 H         1 UNK         0.1257 
    108 H108       25.9333  -46.5217  -52.0475 H         1 UNK         0.0775 
    109 H109       26.4030  -45.2501  -53.1444 H         1 UNK         0.0775 
    110 H110       27.1515  -43.1743  -52.1748 H         1 UNK         0.0840 
    111 H111       28.4081  -42.9676  -50.9850 H         1 UNK         0.0840 
    112 H112       28.0517  -48.0516  -51.5122 H         1 UNK         0.2987 
    113 H113       29.7488  -49.5776  -50.9964 H         1 UNK         0.0785 
    114 H114       28.9190  -51.9447  -51.0505 H         1 UNK         0.0798 
    115 H115       27.6161  -50.8248  -51.4034 H         1 UNK         0.0798 
    116 H116       28.3673  -51.7299  -52.7108 H         1 UNK         0.0798 
    117 H117       30.7982  -51.5110  -52.9327 H         1 UNK         0.3079 
    118 H118       33.4618  -51.5678  -52.6256 H         1 UNK         0.0794 
    119 H119       32.0891  -51.7697  -54.6666 H         1 UNK         0.0786 
    120 H120       33.6877  -51.2874  -55.1839 H         1 UNK         0.0786 
    121 H121       32.3950  -50.0932  -55.1139 H         1 UNK         0.0786 
    122 H122       34.0817  -48.7681  -52.9444 H         1 UNK         0.3032 
    123 H123       36.7569  -48.6406  -52.1940 H         1 UNK         0.1094 
    124 H124       37.9694  -49.6518  -54.8208 H         1 UNK         0.0794 
    125 H125       38.7163  -48.4648  -53.7518 H         1 UNK         0.0794 
    126 H126       38.4551  -50.1090  -53.1968 H         1 UNK         0.0794 
    127 H127       35.9197  -46.9241  -53.3077 H         1 UNK         0.3016 
@<TRIPOS>BOND
     1    1    2 1    
     2    1   67 1    
     3    1   68 1    
     4    1   69 1    
     5    2    3 2    
     6    2    4 am   BACKBONE|DICT|INTERRES
     7    4    5 1    
     8    4   70 1    
     9    5    6 1    
    10    5   65 1    
    11    5   71 1    
    12    6    7 1    
    13    6   72 1    
    14    6   73 1    
    15    7    8 1    
    16    8    9 1    
    17    8   74 1    
    18    8   75 1    
    19    9   10 ar   
    20    9   14 ar   
    21   10   11 ar   
    22   10   76 1    
    23   11   12 ar   
    24   11   48 1    
    25   12   13 ar   
    26   12   77 1    
    27   13   14 ar   
    28   13   15 1    
    29   14   78 1    
    30   15   16 1    
    31   15   79 1    
    32   15   80 1    
    33   16   17 1    
    34   17   18 1    
    35   17   81 1    
    36   17   82 1    
    37   18   19 1    
    38   18   22 1    
    39   18   83 1    
    40   19   20 am   BACKBONE|DICT|INTERRES
    41   19   21 2    
    42   20   84 1    
    43   20   85 1    
    44   22   23 am   BACKBONE|DICT|INTERRES
    45   22   86 1    
    46   23   24 2    
    47   23   25 1    
    48   25   26 1    
    49   25   27 1    
    50   25   87 1    
    51   26   88 1    
    52   26   89 1    
    53   26   90 1    
    54   27   28 am   BACKBONE|DICT|INTERRES
    55   27   91 1    
    56   28   29 2    
    57   28   30 1    
    58   30   31 1    
    59   30   32 1    
    60   30   92 1    
    61   31   93 1    
    62   31   94 1    
    63   31   95 1    
    64   32   33 am   BACKBONE|DICT|INTERRES
    65   32   96 1    
    66   33   34 2    
    67   33   35 1    
    68   35   36 1    
    69   35   37 1    
    70   35   97 1    
    71   36   98 1    
    72   36   99 1    
    73   36  100 1    
    74   37   38 am   BACKBONE|DICT|INTERRES
    75   37  101 1    
    76   38   39 2    
    77   38   40 1    
    78   40   41 1    
    79   40   42 1    
    80   40  102 1    
    81   41  103 1    
    82   41  104 1    
    83   41  105 1    
    84   42   43 am   BACKBONE|DICT|INTERRES
    85   42  106 1    
    86   43   44 2    
    87   43   45 1    
    88   45   46 1    
    89   45   49 1    
    90   45  107 1    
    91   46   47 1    
    92   46  108 1    
    93   46  109 1    
    94   47   48 1    
    95   48  110 1    
    96   48  111 1    
    97   49   50 am   BACKBONE|DICT|INTERRES
    98   49  112 1    
    99   50   51 2    
   100   50   52 1    
   101   52   53 1    
   102   52   54 1    
   103   52  113 1    
   104   53  114 1    
   105   53  115 1    
   106   53  116 1    
   107   54   55 am   BACKBONE|DICT|INTERRES
   108   54  117 1    
   109   55   56 2    
   110   55   57 1    
   111   57   58 1    
   112   57   59 1    
   113   57  118 1    
   114   58  119 1    
   115   58  120 1    
   116   58  121 1    
   117   59   60 am   BACKBONE|DICT|INTERRES
   118   59  122 1    
   119   60   61 2    
   120   60   62 1    
   121   62   63 1    
   122   62   64 1    
   123   62  123 1    
   124   63  124 1    
   125   63  125 1    
   126   63  126 1    
   127   64   65 am   BACKBONE|DICT|INTERRES
   128   64  127 1    
   129   65   66 2    
@<TRIPOS>SUBSTRUCTURE
     1 UNK         1 GROUP             0       ****    0 ROOT    
