@<TRIPOS>MOLECULE
3R134
127   129    1
SMALL
USER_CHARGES


@<TRIPOS>ATOM
      1 CA         36.2372  -43.5648  -48.3495 C.3       0 UNK        -0.1968 
      2 C          36.2489  -44.4808  -49.5647 C.2       0 UNK         0.4852 
      3 O          37.1669  -45.2899  -49.7116 O.2       0 UNK        -0.5359 
      4 N          35.2431  -44.3528  -50.4388 N.am      1 UNK        -0.4300 
      5 CA         35.0411  -45.1932  -51.6225 C.3       1 UNK         0.0863 
      6 C6         34.0892  -44.5339  -52.6533 C.3       11 UNK        -0.0953 
      7 S7         32.5340  -43.8805  -51.9486 S.3       11 UNK        -0.2369 
      8 C8         32.0966  -42.6098  -53.1775 C.3       11 UNK         0.0226 
      9 C9         31.4150  -43.2246  -54.3903 C.ar      11 UNK        -0.0699 
     10 C10        32.1746  -43.7766  -55.4266 C.ar      11 UNK        -0.0804 
     11 C11        31.5498  -44.3862  -56.5204 C.ar      11 UNK        -0.0871 
     12 C12        30.1534  -44.3913  -56.5905 C.ar      11 UNK        -0.1008 
     13 C13        29.3827  -43.8135  -55.5788 C.ar      11 UNK        -0.0735 
     14 C14        30.0197  -43.2417  -54.4743 C.ar      11 UNK        -0.0945 
     15 C15        27.8652  -43.7997  -55.6849 C.3       11 UNK         0.0169 
     16 S16        27.3244  -42.6193  -56.9615 S.3       11 UNK        -0.2669 
     17 C17        25.6016  -42.2571  -56.4677 C.3       11 UNK        -0.0850 
     18 CA         24.5121  -42.9825  -57.3010 C.3       10 UNK         0.0855 
     19 C          24.4926  -42.5431  -58.7932 C.2       10 UNK         0.5543 
     20 N          23.9731  -41.3562  -59.0778 N.am      10 UNK        -0.7343 
     21 O          24.9616  -43.2454  -59.6866 O.2       10 UNK        -0.5027 
     22 N          24.5788  -44.4373  -57.1157 N.am      10 UNK        -0.4495 
     23 C          23.5665  -45.2816  -57.3455 C.2       10 UNK         0.4903 
     24 O          22.4472  -44.9262  -57.7201 O.2       10 UNK        -0.4860 
     25 CA         23.8546  -46.7679  -57.0666 C.3       9 UNK         0.0227 
     26 CB         22.7081  -47.7053  -57.5038 C.3       9 UNK        -0.1964 
     27 N          25.1402  -47.2169  -57.6119 N.am      9 UNK        -0.4231 
     28 C          25.5002  -47.2890  -58.9053 C.2       9 UNK         0.5014 
     29 O          24.7869  -46.9270  -59.8416 O.2       9 UNK        -0.5270 
     30 CA         26.8877  -47.8882  -59.2231 C.3       8 UNK         0.0284 
     31 CB         27.8957  -46.7614  -59.5004 C.3       8 UNK        -0.1977 
     32 N          27.4146  -48.7585  -58.1655 N.am      8 UNK        -0.4342 
     33 C          26.8326  -49.8930  -57.7424 C.2       8 UNK         0.5039 
     34 O          25.8869  -50.4245  -58.3259 O.2       8 UNK        -0.5547 
     35 CA         27.3417  -50.5308  -56.4320 C.3       7 UNK         0.0281 
     36 CB         28.1314  -51.8145  -56.7372 C.3       7 UNK        -0.1963 
     37 N          28.1607  -49.6583  -55.5825 N.am      7 UNK        -0.4444 
     38 C          27.8360  -48.4424  -55.1182 C.2       7 UNK         0.5104 
     39 O          26.7357  -47.9138  -55.2840 O.2       7 UNK        -0.5100 
     40 CA         28.9572  -47.6434  -54.4283 C.3       6 UNK         0.0396 
     41 CB         28.9004  -47.8364  -52.9068 C.3       6 UNK        -0.1801 
     42 N          30.3085  -47.9543  -54.9129 N.am      6 UNK        -0.4747 
     43 C          30.7239  -47.8698  -56.1889 C.2       6 UNK         0.5012 
     44 O          29.9891  -47.5874  -57.1362 O.2       6 UNK        -0.5003 
     45 CA         32.2014  -48.2158  -56.4432 C.3       5 UNK         0.0782 
     46 C46        33.1525  -47.1318  -55.8637 C.3       11 UNK        -0.0868 
     47 S47        33.8182  -45.9792  -57.1106 S.3       11 UNK        -0.2515 
     48 C48        32.3549  -45.0247  -57.6499 C.3       11 UNK         0.0199 
     49 N          32.4741  -49.5392  -55.8830 N.am      5 UNK        -0.4607 
     50 C          32.1522  -50.6970  -56.4763 C.2       4 UNK         0.5031 
     51 O          31.7203  -50.7767  -57.6258 O.2       4 UNK        -0.5119 
     52 CA         32.3258  -51.9876  -55.6525 C.3       4 UNK         0.0263 
     53 CB         33.6521  -52.6768  -56.0110 C.3       4 UNK        -0.1967 
     54 N          32.2734  -51.7708  -54.2038 N.am      4 UNK        -0.4237 
     55 C          31.1902  -51.3626  -53.5260 C.2       3 UNK         0.4908 
     56 O          30.0873  -51.1874  -54.0408 O.2       3 UNK        -0.5102 
     57 CA         31.3879  -51.0339  -52.0350 C.3       3 UNK         0.0241 
     58 CB         31.1483  -52.2826  -51.1720 C.3       3 UNK        -0.1971 
     59 N          32.7086  -50.4693  -51.7312 N.am      3 UNK        -0.4139 
     60 C          33.1992  -49.3392  -52.2600 C.2       2 UNK         0.5016 
     61 O          32.5821  -48.6325  -53.0627 O.2       2 UNK        -0.5319 
     62 CA         34.6585  -49.0116  -51.9083 C.3       2 UNK         0.0286 
     63 CB         35.6082  -49.8294  -52.8010 C.3       2 UNK        -0.1963 
     64 N          34.9676  -47.5921  -52.0821 N.am      2 UNK        -0.4790 
     65 C          34.5896  -46.6199  -51.2426 C.2       1 UNK         0.5024 
     66 O          33.9312  -46.8163  -50.2171 O.2       1 UNK        -0.4888 
     67 H67        36.2000  -44.1559  -47.4348 H         1 UNK         0.0892 
     68 H68        35.3792  -42.8927  -48.3537 H         1 UNK         0.0892 
     69 H69        37.1423  -42.9584  -48.3276 H         1 UNK         0.0892 
     70 H70        34.4962  -43.6985  -50.2526 H         1 UNK         0.3107 
     71 H71        36.0150  -45.2920  -52.1078 H         1 UNK         0.0773 
     72 H72        33.8462  -45.2285  -53.4583 H         1 UNK         0.0680 
     73 H73        34.6193  -43.7082  -53.1300 H         1 UNK         0.0680 
     74 H74        31.4325  -41.8850  -52.7042 H         1 UNK         0.0650 
     75 H75        32.9837  -42.0517  -53.4800 H         1 UNK         0.0650 
     76 H76        33.2537  -43.7513  -55.3700 H         1 UNK         0.1397 
     77 H77        29.6591  -44.8415  -57.4401 H         1 UNK         0.1363 
     78 H78        29.4300  -42.8043  -53.6803 H         1 UNK         0.1355 
     79 H79        27.4247  -43.5372  -54.7220 H         1 UNK         0.0707 
     80 H80        27.5029  -44.7985  -55.9328 H         1 UNK         0.0707 
     81 H81        25.4597  -41.1771  -56.5362 H         1 UNK         0.1034 
     82 H82        25.4662  -42.4888  -55.4104 H         1 UNK         0.1034 
     83 H83        23.5523  -42.6688  -56.8845 H         1 UNK         0.0482 
     84 H84        23.5871  -40.7667  -58.3567 H         1 UNK         0.3460 
     85 H85        23.9599  -41.0460  -60.0369 H         1 UNK         0.3460 
     86 H86        25.4803  -44.8133  -56.8669 H         1 UNK         0.2989 
     87 H87        23.9467  -46.8566  -55.9831 H         1 UNK         0.0559 
     88 H88        22.5105  -47.6346  -58.5739 H         1 UNK         0.0848 
     89 H89        21.7810  -47.4557  -56.9865 H         1 UNK         0.0848 
     90 H90        22.9372  -48.7458  -57.2735 H         1 UNK         0.0848 
     91 H91        25.8101  -47.5310  -56.9127 H         1 UNK         0.3144 
     92 H92        26.7860  -48.4914  -60.1275 H         1 UNK         0.0727 
     93 H93        27.5558  -46.1249  -60.3186 H         1 UNK         0.0790 
     94 H94        28.8716  -47.1584  -59.7810 H         1 UNK         0.0790 
     95 H95        28.0311  -46.1229  -58.6269 H         1 UNK         0.0790 
     96 H96        28.2273  -48.4121  -57.6625 H         1 UNK         0.3215 
     97 H97        26.4583  -50.8016  -55.8505 H         1 UNK         0.0863 
     98 H98        28.3902  -52.3496  -55.8236 H         1 UNK         0.0808 
     99 H99        29.0556  -51.5985  -57.2743 H         1 UNK         0.0808 
    100 H100       27.5471  -52.4985  -57.3544 H         1 UNK         0.0808 
    101 H101       29.0616  -50.0325  -55.2994 H         1 UNK         0.3118 
    102 H102       28.7827  -46.5876  -54.6410 H         1 UNK         0.0546 
    103 H103       27.9424  -47.4994  -52.5089 H         1 UNK         0.0828 
    104 H104       29.6810  -47.2667  -52.4016 H         1 UNK         0.0828 
    105 H105       29.0139  -48.8847  -52.6326 H         1 UNK         0.0828 
    106 H106       30.9969  -48.2024  -54.2073 H         1 UNK         0.3005 
    107 H107       32.3446  -48.2725  -57.5250 H         1 UNK         0.1257 
    108 H108       34.0248  -47.6061  -55.4110 H         1 UNK         0.0775 
    109 H109       32.6969  -46.5658  -55.0493 H         1 UNK         0.0775 
    110 H110       32.6870  -44.2351  -58.3248 H         1 UNK         0.0840 
    111 H111       31.7198  -45.6829  -58.2449 H         1 UNK         0.0840 
    112 H112       32.7647  -49.5488  -54.9132 H         1 UNK         0.2987 
    113 H113       31.5054  -52.6571  -55.9206 H         1 UNK         0.0785 
    114 H114       33.7100  -52.8779  -57.0818 H         1 UNK         0.0798 
    115 H115       33.7543  -53.6337  -55.4986 H         1 UNK         0.0798 
    116 H116       34.5127  -52.0598  -55.7487 H         1 UNK         0.0798 
    117 H117       33.1346  -51.9005  -53.6939 H         1 UNK         0.3079 
    118 H118       30.6439  -50.2847  -51.7613 H         1 UNK         0.0794 
    119 H119       31.8831  -53.0630  -51.3737 H         1 UNK         0.0786 
    120 H120       30.1616  -52.7062  -51.3658 H         1 UNK         0.0786 
    121 H121       31.1924  -52.0452  -50.1089 H         1 UNK         0.0786 
    122 H122       33.2849  -50.9962  -51.0902 H         1 UNK         0.3032 
    123 H123       34.8336  -49.2785  -50.8632 H         1 UNK         0.1094 
    124 H124       35.4608  -49.6085  -53.8593 H         1 UNK         0.0794 
    125 H125       36.6518  -49.6261  -52.5595 H         1 UNK         0.0794 
    126 H126       35.4543  -50.9010  -52.6672 H         1 UNK         0.0794 
    127 H127       35.4759  -47.3436  -52.9181 H         1 UNK         0.3016 
@<TRIPOS>BOND
     1    1    2 1    
     2    1   67 1    
     3    1   68 1    
     4    1   69 1    
     5    2    3 2    
     6    2    4 am   BACKBONE|DICT|INTERRES
     7    4    5 1    
     8    4   70 1    
     9    5    6 1    
    10    5   65 1    
    11    5   71 1    
    12    6    7 1    
    13    6   72 1    
    14    6   73 1    
    15    7    8 1    
    16    8    9 1    
    17    8   74 1    
    18    8   75 1    
    19    9   10 ar   
    20    9   14 ar   
    21   10   11 ar   
    22   10   76 1    
    23   11   12 ar   
    24   11   48 1    
    25   12   13 ar   
    26   12   77 1    
    27   13   14 ar   
    28   13   15 1    
    29   14   78 1    
    30   15   16 1    
    31   15   79 1    
    32   15   80 1    
    33   16   17 1    
    34   17   18 1    
    35   17   81 1    
    36   17   82 1    
    37   18   19 1    
    38   18   22 1    
    39   18   83 1    
    40   19   20 am   BACKBONE|DICT|INTERRES
    41   19   21 2    
    42   20   84 1    
    43   20   85 1    
    44   22   23 am   BACKBONE|DICT|INTERRES
    45   22   86 1    
    46   23   24 2    
    47   23   25 1    
    48   25   26 1    
    49   25   27 1    
    50   25   87 1    
    51   26   88 1    
    52   26   89 1    
    53   26   90 1    
    54   27   28 am   BACKBONE|DICT|INTERRES
    55   27   91 1    
    56   28   29 2    
    57   28   30 1    
    58   30   31 1    
    59   30   32 1    
    60   30   92 1    
    61   31   93 1    
    62   31   94 1    
    63   31   95 1    
    64   32   33 am   BACKBONE|DICT|INTERRES
    65   32   96 1    
    66   33   34 2    
    67   33   35 1    
    68   35   36 1    
    69   35   37 1    
    70   35   97 1    
    71   36   98 1    
    72   36   99 1    
    73   36  100 1    
    74   37   38 am   BACKBONE|DICT|INTERRES
    75   37  101 1    
    76   38   39 2    
    77   38   40 1    
    78   40   41 1    
    79   40   42 1    
    80   40  102 1    
    81   41  103 1    
    82   41  104 1    
    83   41  105 1    
    84   42   43 am   BACKBONE|DICT|INTERRES
    85   42  106 1    
    86   43   44 2    
    87   43   45 1    
    88   45   46 1    
    89   45   49 1    
    90   45  107 1    
    91   46   47 1    
    92   46  108 1    
    93   46  109 1    
    94   47   48 1    
    95   48  110 1    
    96   48  111 1    
    97   49   50 am   BACKBONE|DICT|INTERRES
    98   49  112 1    
    99   50   51 2    
   100   50   52 1    
   101   52   53 1    
   102   52   54 1    
   103   52  113 1    
   104   53  114 1    
   105   53  115 1    
   106   53  116 1    
   107   54   55 am   BACKBONE|DICT|INTERRES
   108   54  117 1    
   109   55   56 2    
   110   55   57 1    
   111   57   58 1    
   112   57   59 1    
   113   57  118 1    
   114   58  119 1    
   115   58  120 1    
   116   58  121 1    
   117   59   60 am   BACKBONE|DICT|INTERRES
   118   59  122 1    
   119   60   61 2    
   120   60   62 1    
   121   62   63 1    
   122   62   64 1    
   123   62  123 1    
   124   63  124 1    
   125   63  125 1    
   126   63  126 1    
   127   64   65 am   BACKBONE|DICT|INTERRES
   128   64  127 1    
   129   65   66 2    
@<TRIPOS>SUBSTRUCTURE
     1 UNK         1 GROUP             0       ****    0 ROOT    
