@<TRIPOS>MOLECULE
3R134
127   129    1
SMALL
USER_CHARGES


@<TRIPOS>ATOM
      1 CA         32.9064  -46.8394  -50.0608 C.3       0 UNK        -0.1968 
      2 C          33.9283  -46.0756  -50.8889 C.2       0 UNK         0.4852 
      3 O          34.4757  -45.0766  -50.4190 O.2       0 UNK        -0.5359 
      4 N          34.1879  -46.5474  -52.1106 N.am      1 UNK        -0.4300 
      5 CA         35.1801  -46.0149  -53.0428 C.3       1 UNK         0.0863 
      6 C6         34.5266  -45.1680  -54.1723 C.3       11 UNK        -0.0953 
      7 S7         33.2335  -46.0388  -55.1313 S.3       11 UNK        -0.2369 
      8 C8         32.3769  -44.6318  -55.9137 C.3       11 UNK         0.0226 
      9 C9         31.3319  -43.9064  -55.0607 C.ar      11 UNK        -0.0699 
     10 C10        31.1323  -44.1581  -53.6943 C.ar      11 UNK        -0.0804 
     11 C11        30.1574  -43.4575  -52.9736 C.ar      11 UNK        -0.0871 
     12 C12        29.3738  -42.5039  -53.6280 C.ar      11 UNK        -0.1008 
     13 C13        29.5687  -42.2307  -54.9829 C.ar      11 UNK        -0.0735 
     14 C14        30.5497  -42.9316  -55.6886 C.ar      11 UNK        -0.0945 
     15 C15        28.7391  -41.1529  -55.6654 C.3       11 UNK         0.0169 
     16 S16        27.2373  -41.8378  -56.4297 S.3       11 UNK        -0.2669 
     17 C17        27.8621  -42.2655  -58.0887 C.3       11 UNK        -0.0850 
     18 CA         26.8198  -43.0356  -58.9355 C.3       10 UNK         0.0855 
     19 C          27.3231  -43.1935  -60.3962 C.2       10 UNK         0.5543 
     20 N          26.7437  -42.4634  -61.3392 N.am      10 UNK        -0.7343 
     21 O          28.2685  -43.9303  -60.6670 O.2       10 UNK        -0.5027 
     22 N          26.4887  -44.3274  -58.3193 N.am      10 UNK        -0.4495 
     23 C          25.5097  -45.1472  -58.7202 C.2       10 UNK         0.4903 
     24 O          24.7119  -44.8737  -59.6190 O.2       10 UNK        -0.4860 
     25 CA         25.3987  -46.4903  -57.9711 C.3       9 UNK         0.0227 
     26 CB         24.4961  -47.5114  -58.6956 C.3       9 UNK        -0.1964 
     27 N          26.6995  -47.0908  -57.6495 N.am      9 UNK        -0.4231 
     28 C          27.6631  -47.4609  -58.5096 C.2       9 UNK         0.5014 
     29 O          27.6099  -47.3002  -59.7292 O.2       9 UNK        -0.5270 
     30 CA         28.8822  -48.1748  -57.8996 C.3       8 UNK         0.0284 
     31 CB         29.8047  -47.1784  -57.1763 C.3       8 UNK        -0.1977 
     32 N          28.4877  -49.2431  -56.9796 N.am      8 UNK        -0.4342 
     33 C          27.8044  -50.3450  -57.3250 C.2       8 UNK         0.5039 
     34 O          27.5259  -50.6508  -58.4850 O.2       8 UNK        -0.5547 
     35 CA         27.3249  -51.2454  -56.1770 C.3       7 UNK         0.0281 
     36 CB         28.4390  -52.2039  -55.7235 C.3       7 UNK        -0.1963 
     37 N          26.8489  -50.4469  -55.0443 N.am      7 UNK        -0.4444 
     38 C          25.6332  -49.8837  -54.9804 C.2       7 UNK         0.5104 
     39 O          24.7561  -50.0550  -55.8268 O.2       7 UNK        -0.5100 
     40 CA         25.3317  -48.9774  -53.7718 C.3       6 UNK         0.0396 
     41 CB         24.5788  -49.7659  -52.6886 C.3       6 UNK        -0.1801 
     42 N          26.5265  -48.3698  -53.1803 N.am      6 UNK        -0.4747 
     43 C          27.2418  -47.3831  -53.7408 C.2       6 UNK         0.5012 
     44 O          26.9582  -46.8594  -54.8182 O.2       6 UNK        -0.5003 
     45 CA         28.5295  -46.9662  -53.0005 C.3       5 UNK         0.0782 
     46 C46        28.2293  -45.8889  -51.9297 C.3       11 UNK        -0.0868 
     47 S47        29.7319  -45.4164  -51.0064 S.3       11 UNK        -0.2515 
     48 C48        29.9738  -43.6749  -51.4755 C.3       11 UNK         0.0199 
     49 N          29.2515  -48.1173  -52.4373 N.am      5 UNK        -0.4607 
     50 C          29.7398  -49.1336  -53.1539 C.2       4 UNK         0.5031 
     51 O          29.5306  -49.2774  -54.3599 O.2       4 UNK        -0.5119 
     52 CA         30.5633  -50.1892  -52.3988 C.3       4 UNK         0.0263 
     53 CB         29.6626  -51.3498  -51.9472 C.3       4 UNK        -0.1967 
     54 N          31.6307  -50.7054  -53.2580 N.am      4 UNK        -0.4237 
     55 C          32.6777  -49.9692  -53.6500 C.2       3 UNK         0.4908 
     56 O          32.9526  -48.8675  -53.1625 O.2       3 UNK        -0.5102 
     57 CA         33.5369  -50.5436  -54.7875 C.3       3 UNK         0.0241 
     58 CB         32.6988  -50.7995  -56.0557 C.3       3 UNK        -0.1971 
     59 N          34.5755  -49.5690  -55.0964 N.am      3 UNK        -0.4139 
     60 C          35.8679  -49.8119  -55.3368 C.2       2 UNK         0.5016 
     61 O          36.3461  -50.9402  -55.4606 O.2       2 UNK        -0.5319 
     62 CA         36.7887  -48.5779  -55.4456 C.3       2 UNK         0.0286 
     63 CB         37.1160  -48.2776  -56.9173 C.3       2 UNK        -0.1963 
     64 N          36.2038  -47.3784  -54.8315 N.am      2 UNK        -0.4790 
     65 C          36.0514  -47.1983  -53.5116 C.2       1 UNK         0.5024 
     66 O          36.5485  -47.9509  -52.6708 O.2       1 UNK        -0.4888 
     67 H67        32.2693  -47.4639  -50.6873 H         1 UNK         0.0892 
     68 H68        33.4116  -47.4793  -49.3383 H         1 UNK         0.0892 
     69 H69        32.2678  -46.1463  -49.5142 H         1 UNK         0.0892 
     70 H70        33.7180  -47.3935  -52.4350 H         1 UNK         0.3107 
     71 H71        35.8687  -45.3599  -52.5052 H         1 UNK         0.0773 
     72 H72        35.2836  -44.7860  -54.8593 H         1 UNK         0.0680 
     73 H73        34.0769  -44.2811  -53.7235 H         1 UNK         0.0680 
     74 H74        31.8865  -45.0092  -56.8113 H         1 UNK         0.0650 
     75 H75        33.1214  -43.9110  -56.2549 H         1 UNK         0.0650 
     76 H76        31.7329  -44.8914  -53.1756 H         1 UNK         0.1397 
     77 H77        28.6225  -41.9534  -53.0780 H         1 UNK         0.1363 
     78 H78        30.7125  -42.7130  -56.7347 H         1 UNK         0.1355 
     79 H79        28.4426  -40.3984  -54.9350 H         1 UNK         0.0707 
     80 H80        29.3360  -40.6270  -56.4123 H         1 UNK         0.0707 
     81 H81        28.1457  -41.3359  -58.5868 H         1 UNK         0.1034 
     82 H82        28.7755  -42.8538  -57.9938 H         1 UNK         0.1034 
     83 H83        25.9012  -42.4451  -58.9533 H         1 UNK         0.0482 
     84 H84        25.9715  -41.8519  -61.1234 H         1 UNK         0.3460 
     85 H85        27.0712  -42.5400  -62.2895 H         1 UNK         0.3460 
     86 H86        27.0939  -44.6307  -57.5714 H         1 UNK         0.2989 
     87 H87        24.9305  -46.2630  -57.0124 H         1 UNK         0.0559 
     88 H88        24.8763  -47.7534  -59.6885 H         1 UNK         0.0848 
     89 H89        23.4845  -47.1232  -58.8194 H         1 UNK         0.0848 
     90 H90        24.4183  -48.4411  -58.1317 H         1 UNK         0.0848 
     91 H91        26.8752  -47.2129  -56.6539 H         1 UNK         0.3144 
     92 H92        29.4469  -48.6314  -58.7151 H         1 UNK         0.0727 
     93 H93        29.3097  -46.7000  -56.3309 H         1 UNK         0.0790 
     94 H94        30.1264  -46.3879  -57.8553 H         1 UNK         0.0790 
     95 H95        30.7026  -47.6689  -56.7992 H         1 UNK         0.0790 
     96 H96        28.7531  -49.1302  -56.0025 H         1 UNK         0.3215 
     97 H97        26.4968  -51.8518  -56.5515 H         1 UNK         0.0863 
     98 H98        28.0973  -52.8579  -54.9213 H         1 UNK         0.0808 
     99 H99        29.3226  -51.6716  -55.3729 H         1 UNK         0.0808 
    100 H100       28.7557  -52.8434  -56.5484 H         1 UNK         0.0808 
    101 H101       27.5332  -50.2015  -54.3423 H         1 UNK         0.3118 
    102 H102       24.6798  -48.1734  -54.1208 H         1 UNK         0.0546 
    103 H103       25.1826  -50.5804  -52.2866 H         1 UNK         0.0828 
    104 H104       23.6655  -50.2065  -53.0913 H         1 UNK         0.0828 
    105 H105       24.2859  -49.1220  -51.8592 H         1 UNK         0.0828 
    106 H106       26.8425  -48.7466  -52.2979 H         1 UNK         0.3005 
    107 H107       29.1872  -46.5172  -53.7489 H         1 UNK         0.1257 
    108 H108       27.4964  -46.2545  -51.2080 H         1 UNK         0.0775 
    109 H109       27.7876  -45.0030  -52.3904 H         1 UNK         0.0775 
    110 H110       29.1297  -43.0961  -51.0971 H         1 UNK         0.0840 
    111 H111       30.8575  -43.2968  -50.9596 H         1 UNK         0.0840 
    112 H112       29.4616  -48.0599  -51.4512 H         1 UNK         0.2987 
    113 H113       31.0159  -49.7283  -51.5181 H         1 UNK         0.0785 
    114 H114       28.8721  -50.9968  -51.2835 H         1 UNK         0.0798 
    115 H115       30.2311  -52.1008  -51.3983 H         1 UNK         0.0798 
    116 H116       29.1820  -51.8452  -52.7911 H         1 UNK         0.0798 
    117 H117       31.4584  -51.5893  -53.7130 H         1 UNK         0.3079 
    118 H118       33.9859  -51.4763  -54.4399 H         1 UNK         0.0794 
    119 H119       31.9612  -51.5864  -55.8966 H         1 UNK         0.0786 
    120 H120       33.3282  -51.1159  -56.8878 H         1 UNK         0.0786 
    121 H121       32.1587  -49.9041  -56.3680 H         1 UNK         0.0786 
    122 H122       34.2949  -48.6095  -54.9388 H         1 UNK         0.3032 
    123 H123       37.7188  -48.8180  -54.9252 H         1 UNK         0.1094 
    124 H124       37.8157  -47.4465  -57.0070 H         1 UNK         0.0794 
    125 H125       37.5781  -49.1413  -57.3979 H         1 UNK         0.0794 
    126 H126       36.2205  -48.0278  -57.4880 H         1 UNK         0.0794 
    127 H127       35.7551  -46.7211  -55.4554 H         1 UNK         0.3016 
@<TRIPOS>BOND
     1    1    2 1    
     2    1   67 1    
     3    1   68 1    
     4    1   69 1    
     5    2    3 2    
     6    2    4 am   BACKBONE|DICT|INTERRES
     7    4    5 1    
     8    4   70 1    
     9    5    6 1    
    10    5   65 1    
    11    5   71 1    
    12    6    7 1    
    13    6   72 1    
    14    6   73 1    
    15    7    8 1    
    16    8    9 1    
    17    8   74 1    
    18    8   75 1    
    19    9   10 ar   
    20    9   14 ar   
    21   10   11 ar   
    22   10   76 1    
    23   11   12 ar   
    24   11   48 1    
    25   12   13 ar   
    26   12   77 1    
    27   13   14 ar   
    28   13   15 1    
    29   14   78 1    
    30   15   16 1    
    31   15   79 1    
    32   15   80 1    
    33   16   17 1    
    34   17   18 1    
    35   17   81 1    
    36   17   82 1    
    37   18   19 1    
    38   18   22 1    
    39   18   83 1    
    40   19   20 am   BACKBONE|DICT|INTERRES
    41   19   21 2    
    42   20   84 1    
    43   20   85 1    
    44   22   23 am   BACKBONE|DICT|INTERRES
    45   22   86 1    
    46   23   24 2    
    47   23   25 1    
    48   25   26 1    
    49   25   27 1    
    50   25   87 1    
    51   26   88 1    
    52   26   89 1    
    53   26   90 1    
    54   27   28 am   BACKBONE|DICT|INTERRES
    55   27   91 1    
    56   28   29 2    
    57   28   30 1    
    58   30   31 1    
    59   30   32 1    
    60   30   92 1    
    61   31   93 1    
    62   31   94 1    
    63   31   95 1    
    64   32   33 am   BACKBONE|DICT|INTERRES
    65   32   96 1    
    66   33   34 2    
    67   33   35 1    
    68   35   36 1    
    69   35   37 1    
    70   35   97 1    
    71   36   98 1    
    72   36   99 1    
    73   36  100 1    
    74   37   38 am   BACKBONE|DICT|INTERRES
    75   37  101 1    
    76   38   39 2    
    77   38   40 1    
    78   40   41 1    
    79   40   42 1    
    80   40  102 1    
    81   41  103 1    
    82   41  104 1    
    83   41  105 1    
    84   42   43 am   BACKBONE|DICT|INTERRES
    85   42  106 1    
    86   43   44 2    
    87   43   45 1    
    88   45   46 1    
    89   45   49 1    
    90   45  107 1    
    91   46   47 1    
    92   46  108 1    
    93   46  109 1    
    94   47   48 1    
    95   48  110 1    
    96   48  111 1    
    97   49   50 am   BACKBONE|DICT|INTERRES
    98   49  112 1    
    99   50   51 2    
   100   50   52 1    
   101   52   53 1    
   102   52   54 1    
   103   52  113 1    
   104   53  114 1    
   105   53  115 1    
   106   53  116 1    
   107   54   55 am   BACKBONE|DICT|INTERRES
   108   54  117 1    
   109   55   56 2    
   110   55   57 1    
   111   57   58 1    
   112   57   59 1    
   113   57  118 1    
   114   58  119 1    
   115   58  120 1    
   116   58  121 1    
   117   59   60 am   BACKBONE|DICT|INTERRES
   118   59  122 1    
   119   60   61 2    
   120   60   62 1    
   121   62   63 1    
   122   62   64 1    
   123   62  123 1    
   124   63  124 1    
   125   63  125 1    
   126   63  126 1    
   127   64   65 am   BACKBONE|DICT|INTERRES
   128   64  127 1    
   129   65   66 2    
@<TRIPOS>SUBSTRUCTURE
     1 UNK         1 GROUP             0       ****    0 ROOT    
