@<TRIPOS>MOLECULE
3R134
127   129    1
SMALL
USER_CHARGES


@<TRIPOS>ATOM
      1 CA         37.6474  -43.0847  -51.5078 C.3       0 UNK        -0.1968 
      2 C          37.2508  -44.4438  -52.0661 C.2       0 UNK         0.4852 
      3 O          38.0577  -45.3747  -52.0401 O.2       0 UNK        -0.5359 
      4 N          36.0185  -44.5610  -52.5760 N.am      1 UNK        -0.4300 
      5 CA         35.4472  -45.8040  -53.1033 C.3       1 UNK         0.0863 
      6 C6         34.2037  -45.5506  -53.9920 C.3       11 UNK        -0.0953 
      7 S7         34.5195  -44.4405  -55.4076 S.3       11 UNK        -0.2369 
      8 C8         33.8254  -42.8511  -54.8398 C.3       11 UNK         0.0226 
      9 C9         32.3048  -42.8750  -54.7633 C.ar      11 UNK        -0.0699 
     10 C10        31.6669  -43.1848  -53.5587 C.ar      11 UNK        -0.0804 
     11 C11        30.2742  -43.2524  -53.4871 C.ar      11 UNK        -0.0871 
     12 C12        29.5126  -42.9454  -54.6172 C.ar      11 UNK        -0.1008 
     13 C13        30.1365  -42.6058  -55.8206 C.ar      11 UNK        -0.0735 
     14 C14        31.5333  -42.5815  -55.8925 C.ar      11 UNK        -0.0945 
     15 C15        29.2926  -42.2803  -57.0405 C.3       11 UNK         0.0169 
     16 S16        28.8291  -43.8001  -57.9169 S.3       11 UNK        -0.2669 
     17 C17        27.5476  -43.1673  -59.0533 C.3       11 UNK        -0.0850 
     18 CA         26.1007  -43.3349  -58.5118 C.3       10 UNK         0.0855 
     19 C          25.0781  -42.8342  -59.5733 C.2       10 UNK         0.5543 
     20 N          24.3550  -43.7109  -60.2599 N.am      10 UNK        -0.7343 
     21 O          24.9472  -41.6300  -59.7776 O.2       10 UNK        -0.5027 
     22 N          25.8712  -44.7005  -58.0178 N.am      10 UNK        -0.4495 
     23 C          24.7938  -45.1577  -57.3675 C.2       10 UNK         0.4903 
     24 O          23.8368  -44.4500  -57.0515 O.2       10 UNK        -0.4860 
     25 CA         24.7896  -46.6536  -56.9817 C.3       9 UNK         0.0227 
     26 CB         23.4358  -47.3297  -57.2822 C.3       9 UNK        -0.1964 
     27 N          25.9071  -47.4273  -57.5464 N.am      9 UNK        -0.4231 
     28 C          26.1555  -47.6863  -58.8412 C.2       9 UNK         0.5014 
     29 O          25.4258  -47.3322  -59.7681 O.2       9 UNK        -0.5270 
     30 CA         27.4703  -48.4109  -59.1653 C.3       8 UNK         0.0284 
     31 CB         28.6133  -47.3939  -59.3142 C.3       8 UNK        -0.1977 
     32 N          27.8265  -49.4140  -58.1594 N.am      8 UNK        -0.4342 
     33 C          27.2446  -50.6199  -58.0812 C.2       8 UNK         0.5039 
     34 O          26.3801  -51.0149  -58.8652 O.2       8 UNK        -0.5547 
     35 CA         27.6956  -51.5469  -56.9411 C.3       7 UNK         0.0281 
     36 CB         29.0427  -52.2063  -57.2743 C.3       7 UNK        -0.1963 
     37 N          27.7783  -50.8650  -55.6486 N.am      7 UNK        -0.4444 
     38 C          26.7225  -50.3791  -54.9803 C.2       7 UNK         0.5104 
     39 O          25.5594  -50.4576  -55.3764 O.2       7 UNK        -0.5100 
     40 CA         27.0103  -49.6832  -53.6406 C.3       6 UNK         0.0396 
     41 CB         27.1030  -50.7129  -52.5034 C.3       6 UNK        -0.1801 
     42 N          28.2290  -48.8741  -53.6662 N.am      6 UNK        -0.4747 
     43 C          28.3853  -47.7521  -54.3837 C.2       6 UNK         0.5012 
     44 O          27.5248  -47.2917  -55.1347 O.2       6 UNK        -0.5003 
     45 CA         29.7613  -47.0594  -54.2711 C.3       5 UNK         0.0782 
     46 C46        29.9873  -46.4313  -52.8667 C.3       11 UNK        -0.0868 
     47 S47        28.6909  -45.2402  -52.3578 S.3       11 UNK        -0.2515 
     48 C48        29.5983  -43.6689  -52.1898 C.3       11 UNK         0.0199 
     49 N          30.8405  -47.9948  -54.6170 N.am      5 UNK        -0.4607 
     50 C          30.9506  -48.6472  -55.7878 C.2       4 UNK         0.5031 
     51 O          30.1966  -48.4746  -56.7441 O.2       4 UNK        -0.5119 
     52 CA         32.0438  -49.7263  -55.9046 C.3       4 UNK         0.0263 
     53 CB         33.3443  -49.1206  -56.4547 C.3       4 UNK        -0.1967 
     54 N          32.3223  -50.4242  -54.6482 N.am      4 UNK        -0.4237 
     55 C          31.4211  -51.0629  -53.8864 C.2       3 UNK         0.4908 
     56 O          30.2500  -51.2428  -54.2209 O.2       3 UNK        -0.5102 
     57 CA         31.8814  -51.5366  -52.4939 C.3       3 UNK         0.0241 
     58 CB         32.0671  -53.0623  -52.4848 C.3       3 UNK        -0.1971 
     59 N          33.1078  -50.8966  -51.9942 N.am      3 UNK        -0.4139 
     60 C          33.2949  -49.5801  -51.8109 C.2       2 UNK         0.5016 
     61 O          32.4339  -48.7336  -52.0657 O.2       2 UNK        -0.5319 
     62 CA         34.6828  -49.1233  -51.3200 C.3       2 UNK         0.0286 
     63 CB         35.7385  -50.2481  -51.2647 C.3       2 UNK        -0.1963 
     64 N          35.1714  -48.0616  -52.2018 N.am      2 UNK        -0.4790 
     65 C          35.0672  -46.7521  -51.9480 C.2       1 UNK         0.5024 
     66 O          34.6494  -46.2868  -50.8839 O.2       1 UNK        -0.4888 
     67 H67        36.8481  -42.3512  -51.6120 H         1 UNK         0.0892 
     68 H68        38.5249  -42.7056  -52.0311 H         1 UNK         0.0892 
     69 H69        37.8922  -43.1713  -50.4495 H         1 UNK         0.0892 
     70 H70        35.3896  -43.7740  -52.5376 H         1 UNK         0.3107 
     71 H71        36.2101  -46.2913  -53.7147 H         1 UNK         0.0773 
     72 H72        33.3803  -45.1726  -53.3919 H         1 UNK         0.0680 
     73 H73        33.8427  -46.4931  -54.4050 H         1 UNK         0.0680 
     74 H74        34.2524  -42.5871  -53.8719 H         1 UNK         0.0650 
     75 H75        34.1421  -42.0684  -55.5307 H         1 UNK         0.0650 
     76 H76        32.2557  -43.3958  -52.6770 H         1 UNK         0.1397 
     77 H77        28.4330  -42.9910  -54.5650 H         1 UNK         0.1363 
     78 H78        32.0199  -42.3382  -56.8272 H         1 UNK         0.1355 
     79 H79        29.8341  -41.6182  -57.7180 H         1 UNK         0.0707 
     80 H80        28.3925  -41.7452  -56.7333 H         1 UNK         0.0707 
     81 H81        27.6590  -43.7030  -59.9982 H         1 UNK         0.1034 
     82 H82        27.7531  -42.1192  -59.2810 H         1 UNK         0.1034 
     83 H83        25.9921  -42.6764  -57.6481 H         1 UNK         0.0482 
     84 H84        24.4675  -44.7002  -60.0970 H         1 UNK         0.3460 
     85 H85        23.6939  -43.3816  -60.9455 H         1 UNK         0.3460 
     86 H86        26.6174  -45.3532  -58.2012 H         1 UNK         0.2989 
     87 H87        24.9327  -46.6806  -55.9007 H         1 UNK         0.0559 
     88 H88        23.4442  -48.3789  -56.9861 H         1 UNK         0.0848 
     89 H89        23.1815  -47.2808  -58.3412 H         1 UNK         0.0848 
     90 H90        22.6267  -46.8462  -56.7336 H         1 UNK         0.0848 
     91 H91        26.6041  -47.7024  -56.8594 H         1 UNK         0.3144 
     92 H92        27.3439  -48.9133  -60.1270 H         1 UNK         0.0727 
     93 H93        29.5437  -47.8829  -59.6030 H         1 UNK         0.0790 
     94 H94        28.7971  -46.8535  -58.3847 H         1 UNK         0.0790 
     95 H95        28.3833  -46.6537  -60.0819 H         1 UNK         0.0790 
     96 H96        28.5655  -49.1651  -57.5048 H         1 UNK         0.3215 
     97 H97        26.9500  -52.3394  -56.8447 H         1 UNK         0.0863 
     98 H98        29.3696  -52.8736  -56.4765 H         1 UNK         0.0808 
     99 H99        29.8236  -51.4648  -57.4350 H         1 UNK         0.0808 
    100 H100       28.9683  -52.8006  -58.1859 H         1 UNK         0.0808 
    101 H101       28.6935  -50.8170  -55.2056 H         1 UNK         0.3118 
    102 H102       26.1722  -49.0163  -53.4268 H         1 UNK         0.0546 
    103 H103       26.1947  -51.3146  -52.4484 H         1 UNK         0.0828 
    104 H104       27.2264  -50.2263  -51.5358 H         1 UNK         0.0828 
    105 H105       27.9394  -51.3988  -52.6443 H         1 UNK         0.0828 
    106 H106       29.0132  -49.2166  -53.1301 H         1 UNK         0.3005 
    107 H107       29.7785  -46.2541  -55.0100 H         1 UNK         0.1257 
    108 H108       30.9606  -45.9405  -52.8374 H         1 UNK         0.0775 
    109 H109       30.0358  -47.2120  -52.1054 H         1 UNK         0.0775 
    110 H110       28.9005  -42.8882  -51.8838 H         1 UNK         0.0840 
    111 H111       30.3241  -43.7647  -51.3806 H         1 UNK         0.0840 
    112 H112       31.4826  -48.2295  -53.8672 H         1 UNK         0.2987 
    113 H113       31.6944  -50.4729  -56.6180 H         1 UNK         0.0785 
    114 H114       33.7864  -48.4073  -55.7597 H         1 UNK         0.0798 
    115 H115       33.1625  -48.5923  -57.3919 H         1 UNK         0.0798 
    116 H116       34.0858  -49.8929  -56.6602 H         1 UNK         0.0798 
    117 H117       33.2605  -50.3433  -54.2876 H         1 UNK         0.3079 
    118 H118       31.0792  -51.2858  -51.7969 H         1 UNK         0.0794 
    119 H119       32.8792  -53.3743  -53.1428 H         1 UNK         0.0786 
    120 H120       31.1615  -53.5686  -52.8227 H         1 UNK         0.0786 
    121 H121       32.2848  -53.4308  -51.4821 H         1 UNK         0.0786 
    122 H122       33.8734  -51.5162  -51.7702 H         1 UNK         0.3032 
    123 H123       34.5455  -48.7425  -50.3052 H         1 UNK         0.1094 
    124 H124       35.9046  -50.7081  -52.2400 H         1 UNK         0.0794 
    125 H125       36.6979  -49.8610  -50.9202 H         1 UNK         0.0794 
    126 H126       35.4507  -51.0330  -50.5638 H         1 UNK         0.0794 
    127 H127       35.5063  -48.3525  -53.1093 H         1 UNK         0.3016 
@<TRIPOS>BOND
     1    1    2 1    
     2    1   67 1    
     3    1   68 1    
     4    1   69 1    
     5    2    3 2    
     6    2    4 am   BACKBONE|DICT|INTERRES
     7    4    5 1    
     8    4   70 1    
     9    5    6 1    
    10    5   65 1    
    11    5   71 1    
    12    6    7 1    
    13    6   72 1    
    14    6   73 1    
    15    7    8 1    
    16    8    9 1    
    17    8   74 1    
    18    8   75 1    
    19    9   10 ar   
    20    9   14 ar   
    21   10   11 ar   
    22   10   76 1    
    23   11   12 ar   
    24   11   48 1    
    25   12   13 ar   
    26   12   77 1    
    27   13   14 ar   
    28   13   15 1    
    29   14   78 1    
    30   15   16 1    
    31   15   79 1    
    32   15   80 1    
    33   16   17 1    
    34   17   18 1    
    35   17   81 1    
    36   17   82 1    
    37   18   19 1    
    38   18   22 1    
    39   18   83 1    
    40   19   20 am   BACKBONE|DICT|INTERRES
    41   19   21 2    
    42   20   84 1    
    43   20   85 1    
    44   22   23 am   BACKBONE|DICT|INTERRES
    45   22   86 1    
    46   23   24 2    
    47   23   25 1    
    48   25   26 1    
    49   25   27 1    
    50   25   87 1    
    51   26   88 1    
    52   26   89 1    
    53   26   90 1    
    54   27   28 am   BACKBONE|DICT|INTERRES
    55   27   91 1    
    56   28   29 2    
    57   28   30 1    
    58   30   31 1    
    59   30   32 1    
    60   30   92 1    
    61   31   93 1    
    62   31   94 1    
    63   31   95 1    
    64   32   33 am   BACKBONE|DICT|INTERRES
    65   32   96 1    
    66   33   34 2    
    67   33   35 1    
    68   35   36 1    
    69   35   37 1    
    70   35   97 1    
    71   36   98 1    
    72   36   99 1    
    73   36  100 1    
    74   37   38 am   BACKBONE|DICT|INTERRES
    75   37  101 1    
    76   38   39 2    
    77   38   40 1    
    78   40   41 1    
    79   40   42 1    
    80   40  102 1    
    81   41  103 1    
    82   41  104 1    
    83   41  105 1    
    84   42   43 am   BACKBONE|DICT|INTERRES
    85   42  106 1    
    86   43   44 2    
    87   43   45 1    
    88   45   46 1    
    89   45   49 1    
    90   45  107 1    
    91   46   47 1    
    92   46  108 1    
    93   46  109 1    
    94   47   48 1    
    95   48  110 1    
    96   48  111 1    
    97   49   50 am   BACKBONE|DICT|INTERRES
    98   49  112 1    
    99   50   51 2    
   100   50   52 1    
   101   52   53 1    
   102   52   54 1    
   103   52  113 1    
   104   53  114 1    
   105   53  115 1    
   106   53  116 1    
   107   54   55 am   BACKBONE|DICT|INTERRES
   108   54  117 1    
   109   55   56 2    
   110   55   57 1    
   111   57   58 1    
   112   57   59 1    
   113   57  118 1    
   114   58  119 1    
   115   58  120 1    
   116   58  121 1    
   117   59   60 am   BACKBONE|DICT|INTERRES
   118   59  122 1    
   119   60   61 2    
   120   60   62 1    
   121   62   63 1    
   122   62   64 1    
   123   62  123 1    
   124   63  124 1    
   125   63  125 1    
   126   63  126 1    
   127   64   65 am   BACKBONE|DICT|INTERRES
   128   64  127 1    
   129   65   66 2    
@<TRIPOS>SUBSTRUCTURE
     1 UNK         1 GROUP             0       ****    0 ROOT    
