@<TRIPOS>MOLECULE
3R134
127   129    1
SMALL
USER_CHARGES


@<TRIPOS>ATOM
      1 CA         33.3424  -45.5365  -49.5455 C.3       0 UNK        -0.1968 
      2 C          33.4973  -46.2419  -50.8852 C.2       0 UNK         0.4852 
      3 O          32.8389  -47.2554  -51.1140 O.2       0 UNK        -0.5359 
      4 N          34.3549  -45.7019  -51.7631 N.am      1 UNK        -0.4300 
      5 CA         34.7062  -46.2186  -53.0930 C.3       1 UNK         0.0863 
      6 C6         33.4702  -46.4472  -54.0148 C.3       11 UNK        -0.0953 
      7 S7         33.7595  -45.8794  -55.7246 S.3       11 UNK        -0.2369 
      8 C8         33.4924  -44.0798  -55.5747 C.3       11 UNK         0.0226 
      9 C9         32.0431  -43.7456  -55.2578 C.ar      11 UNK        -0.0699 
     10 C10        31.6472  -43.4948  -53.9413 C.ar      11 UNK        -0.0804 
     11 C11        30.3026  -43.2724  -53.6346 C.ar      11 UNK        -0.0871 
     12 C12        29.3535  -43.2643  -54.6619 C.ar      11 UNK        -0.1008 
     13 C13        29.7438  -43.4899  -55.9856 C.ar      11 UNK        -0.0735 
     14 C14        31.0907  -43.7211  -56.2784 C.ar      11 UNK        -0.0945 
     15 C15        28.7060  -43.5527  -57.0925 C.3       11 UNK         0.0169 
     16 S16        28.1373  -41.9029  -57.5942 S.3       11 UNK        -0.2669 
     17 C17        27.4318  -42.2526  -59.2432 C.3       11 UNK        -0.0850 
     18 CA         26.0193  -42.8896  -59.1782 C.3       10 UNK         0.0855 
     19 C          25.2790  -42.7469  -60.5347 C.2       10 UNK         0.5543 
     20 N          24.5320  -41.6676  -60.7205 N.am      10 UNK        -0.7343 
     21 O          25.4070  -43.5787  -61.4314 O.2       10 UNK        -0.5027 
     22 N          26.0881  -44.2966  -58.7617 N.am      10 UNK        -0.4495 
     23 C          25.1003  -44.9674  -58.1655 C.2       10 UNK         0.4903 
     24 O          24.0359  -44.4483  -57.8269 O.2       10 UNK        -0.4860 
     25 CA         25.3125  -46.4655  -57.8774 C.3       9 UNK         0.0227 
     26 CB         24.6333  -47.3308  -58.9561 C.3       9 UNK        -0.1964 
     27 N          26.6977  -46.9059  -57.6490 N.am      9 UNK        -0.4231 
     28 C          27.7284  -46.9826  -58.5046 C.2       9 UNK         0.5014 
     29 O          27.7218  -46.4879  -59.6319 O.2       9 UNK        -0.5270 
     30 CA         28.9735  -47.7623  -58.0334 C.3       8 UNK         0.0284 
     31 CB         30.0172  -46.8352  -57.3967 C.3       8 UNK        -0.1977 
     32 N          28.6548  -48.8338  -57.0882 N.am      8 UNK        -0.4342 
     33 C          27.9958  -49.9589  -57.3997 C.2       8 UNK         0.5039 
     34 O          27.6421  -50.2579  -58.5408 O.2       8 UNK        -0.5547 
     35 CA         27.6531  -50.8969  -56.2327 C.3       7 UNK         0.0281 
     36 CB         28.8597  -51.7733  -55.8562 C.3       7 UNK        -0.1963 
     37 N          27.1909  -50.1474  -55.0620 N.am      7 UNK        -0.4444 
     38 C          25.9674  -49.6111  -54.9453 C.2       7 UNK         0.5104 
     39 O          25.0753  -49.7487  -55.7819 O.2       7 UNK        -0.5100 
     40 CA         25.6887  -48.7708  -53.6859 C.3       6 UNK         0.0396 
     41 CB         25.0839  -49.6493  -52.5796 C.3       6 UNK        -0.1801 
     42 N          26.8762  -48.0868  -53.1663 N.am      6 UNK        -0.4747 
     43 C          27.4969  -47.0654  -53.7762 C.2       6 UNK         0.5012 
     44 O          27.1260  -46.5815  -54.8445 O.2       6 UNK        -0.5003 
     45 CA         28.7774  -46.5335  -53.1006 C.3       5 UNK         0.0782 
     46 C46        28.4067  -45.4871  -52.0204 C.3       11 UNK        -0.0868 
     47 S47        29.8618  -44.6673  -51.2889 S.3       11 UNK        -0.2515 
     48 C48        29.8824  -43.0807  -52.1859 C.3       11 UNK         0.0199 
     49 N          29.6185  -47.6210  -52.5777 N.am      5 UNK        -0.4607 
     50 C          30.1320  -48.6022  -53.3293 C.2       4 UNK         0.5031 
     51 O          29.9564  -48.6950  -54.5482 O.2       4 UNK        -0.5119 
     52 CA         30.9081  -49.7063  -52.6087 C.3       4 UNK         0.0263 
     53 CB         29.9503  -50.7896  -52.0780 C.3       4 UNK        -0.1967 
     54 N          31.8353  -50.2766  -53.5773 N.am      4 UNK        -0.4237 
     55 C          32.9319  -50.9903  -53.3082 C.2       3 UNK         0.4908 
     56 O          33.2761  -51.3262  -52.1747 O.2       3 UNK        -0.5102 
     57 CA         33.8127  -51.3683  -54.5080 C.3       3 UNK         0.0241 
     58 CB         33.0245  -51.5341  -55.8252 C.3       3 UNK        -0.1971 
     59 N          34.8167  -50.3215  -54.6742 N.am      3 UNK        -0.4139 
     60 C          36.0869  -50.3873  -54.2549 C.2       2 UNK         0.5016 
     61 O          36.6099  -51.3947  -53.7768 O.2       2 UNK        -0.5319 
     62 CA         36.9143  -49.0963  -54.3875 C.3       2 UNK         0.0286 
     63 CB         37.6185  -49.0428  -55.7531 C.3       2 UNK        -0.1963 
     64 N          36.0987  -47.8890  -54.2135 N.am      2 UNK        -0.4790 
     65 C          35.6325  -47.4543  -53.0340 C.2       1 UNK         0.5024 
     66 O          35.9251  -47.9790  -51.9569 O.2       1 UNK        -0.4888 
     67 H67        33.9398  -44.6268  -49.4896 H         1 UNK         0.0892 
     68 H68        32.2993  -45.2662  -49.3835 H         1 UNK         0.0892 
     69 H69        33.6525  -46.1977  -48.7369 H         1 UNK         0.0892 
     70 H70        34.8807  -44.8873  -51.4788 H         1 UNK         0.3107 
     71 H71        35.3188  -45.4235  -53.5204 H         1 UNK         0.0773 
     72 H72        32.5885  -45.9400  -53.6275 H         1 UNK         0.0680 
     73 H73        33.1782  -47.4987  -54.0406 H         1 UNK         0.0680 
     74 H74        33.7795  -43.6032  -56.5131 H         1 UNK         0.0650 
     75 H75        34.1564  -43.6720  -54.8113 H         1 UNK         0.0650 
     76 H76        32.3793  -43.5193  -53.1455 H         1 UNK         0.1397 
     77 H77        28.3084  -43.1043  -54.4337 H         1 UNK         0.1363 
     78 H78        31.3963  -43.9185  -57.2967 H         1 UNK         0.1355 
     79 H79        29.1102  -44.0701  -57.9625 H         1 UNK         0.0707 
     80 H80        27.8566  -44.1421  -56.7454 H         1 UNK         0.0707 
     81 H81        27.3921  -41.2950  -59.7668 H         1 UNK         0.1034 
     82 H82        28.1178  -42.8741  -59.8219 H         1 UNK         0.1034 
     83 H83        25.4410  -42.3415  -58.4310 H         1 UNK         0.0482 
     84 H84        24.0545  -41.5470  -61.6002 H         1 UNK         0.3460 
     85 H85        24.4278  -40.9742  -59.9956 H         1 UNK         0.3460 
     86 H86        26.8696  -44.8416  -59.1121 H         1 UNK         0.2989 
     87 H87        24.8004  -46.6650  -56.9346 H         1 UNK         0.0559 
     88 H88        25.0863  -47.1863  -59.9375 H         1 UNK         0.0848 
     89 H89        23.5753  -47.0814  -59.0478 H         1 UNK         0.0848 
     90 H90        24.6964  -48.3909  -58.7089 H         1 UNK         0.0848 
     91 H91        26.8819  -47.1935  -56.6922 H         1 UNK         0.3144 
     92 H92        29.4240  -48.2203  -58.9164 H         1 UNK         0.0727 
     93 H93        29.6254  -46.3408  -56.5074 H         1 UNK         0.0790 
     94 H94        30.3356  -46.0670  -58.1011 H         1 UNK         0.0790 
     95 H95        30.9104  -47.3854  -57.0997 H         1 UNK         0.0790 
     96 H96        28.9770  -48.7073  -56.1307 H         1 UNK         0.3215 
     97 H97        26.8477  -51.5578  -56.5616 H         1 UNK         0.0863 
     98 H98        28.6075  -52.4757  -55.0617 H         1 UNK         0.0808 
     99 H99        29.7100  -51.1793  -55.5230 H         1 UNK         0.0808 
    100 H100       29.1928  -52.3614  -56.7124 H         1 UNK         0.0808 
    101 H101       27.8735  -49.9445  -54.3472 H         1 UNK         0.3118 
    102 H102       24.9530  -48.0097  -53.9552 H         1 UNK         0.0546 
    103 H103       25.7789  -50.4225  -52.2496 H         1 UNK         0.0828 
    104 H104       24.1815  -50.1519  -52.9310 H         1 UNK         0.0828 
    105 H105       24.8025  -49.0557  -51.7097 H         1 UNK         0.0828 
    106 H106       27.2507  -48.4209  -52.2898 H         1 UNK         0.3005 
    107 H107       29.3566  -46.0331  -53.8800 H         1 UNK         0.1257 
    108 H108       27.8478  -45.9582  -51.2097 H         1 UNK         0.0775 
    109 H109       27.7445  -44.7237  -52.4336 H         1 UNK         0.0775 
    110 H110       28.9036  -42.6029  -52.1203 H         1 UNK         0.0840 
    111 H111       30.5829  -42.4056  -51.6921 H         1 UNK         0.0840 
    112 H112       29.8380  -47.5846  -51.5922 H         1 UNK         0.2987 
    113 H113       31.4700  -49.2744  -51.7804 H         1 UNK         0.0785 
    114 H114       29.2338  -50.3691  -51.3715 H         1 UNK         0.0798 
    115 H115       30.4933  -51.5755  -51.5529 H         1 UNK         0.0798 
    116 H116       29.3831  -51.2593  -52.8818 H         1 UNK         0.0798 
    117 H117       31.6283  -50.0098  -54.5319 H         1 UNK         0.3079 
    118 H118       34.2878  -52.3244  -54.2777 H         1 UNK         0.0794 
    119 H119       32.2087  -52.2489  -55.7071 H         1 UNK         0.0786 
    120 H120       33.6708  -51.9169  -56.6154 H         1 UNK         0.0786 
    121 H121       32.5975  -50.5961  -56.1822 H         1 UNK         0.0786 
    122 H122       34.4897  -49.4358  -55.0304 H         1 UNK         0.3032 
    123 H123       37.6801  -49.1153  -53.6081 H         1 UNK         0.1094 
    124 H124       38.2636  -48.1676  -55.8327 H         1 UNK         0.0794 
    125 H125       38.2481  -49.9215  -55.9008 H         1 UNK         0.0794 
    126 H126       36.9051  -49.0112  -56.5776 H         1 UNK         0.0794 
    127 H127       35.8352  -47.3869  -55.0513 H         1 UNK         0.3016 
@<TRIPOS>BOND
     1    1    2 1    
     2    1   67 1    
     3    1   68 1    
     4    1   69 1    
     5    2    3 2    
     6    2    4 am   BACKBONE|DICT|INTERRES
     7    4    5 1    
     8    4   70 1    
     9    5    6 1    
    10    5   65 1    
    11    5   71 1    
    12    6    7 1    
    13    6   72 1    
    14    6   73 1    
    15    7    8 1    
    16    8    9 1    
    17    8   74 1    
    18    8   75 1    
    19    9   10 ar   
    20    9   14 ar   
    21   10   11 ar   
    22   10   76 1    
    23   11   12 ar   
    24   11   48 1    
    25   12   13 ar   
    26   12   77 1    
    27   13   14 ar   
    28   13   15 1    
    29   14   78 1    
    30   15   16 1    
    31   15   79 1    
    32   15   80 1    
    33   16   17 1    
    34   17   18 1    
    35   17   81 1    
    36   17   82 1    
    37   18   19 1    
    38   18   22 1    
    39   18   83 1    
    40   19   20 am   BACKBONE|DICT|INTERRES
    41   19   21 2    
    42   20   84 1    
    43   20   85 1    
    44   22   23 am   BACKBONE|DICT|INTERRES
    45   22   86 1    
    46   23   24 2    
    47   23   25 1    
    48   25   26 1    
    49   25   27 1    
    50   25   87 1    
    51   26   88 1    
    52   26   89 1    
    53   26   90 1    
    54   27   28 am   BACKBONE|DICT|INTERRES
    55   27   91 1    
    56   28   29 2    
    57   28   30 1    
    58   30   31 1    
    59   30   32 1    
    60   30   92 1    
    61   31   93 1    
    62   31   94 1    
    63   31   95 1    
    64   32   33 am   BACKBONE|DICT|INTERRES
    65   32   96 1    
    66   33   34 2    
    67   33   35 1    
    68   35   36 1    
    69   35   37 1    
    70   35   97 1    
    71   36   98 1    
    72   36   99 1    
    73   36  100 1    
    74   37   38 am   BACKBONE|DICT|INTERRES
    75   37  101 1    
    76   38   39 2    
    77   38   40 1    
    78   40   41 1    
    79   40   42 1    
    80   40  102 1    
    81   41  103 1    
    82   41  104 1    
    83   41  105 1    
    84   42   43 am   BACKBONE|DICT|INTERRES
    85   42  106 1    
    86   43   44 2    
    87   43   45 1    
    88   45   46 1    
    89   45   49 1    
    90   45  107 1    
    91   46   47 1    
    92   46  108 1    
    93   46  109 1    
    94   47   48 1    
    95   48  110 1    
    96   48  111 1    
    97   49   50 am   BACKBONE|DICT|INTERRES
    98   49  112 1    
    99   50   51 2    
   100   50   52 1    
   101   52   53 1    
   102   52   54 1    
   103   52  113 1    
   104   53  114 1    
   105   53  115 1    
   106   53  116 1    
   107   54   55 am   BACKBONE|DICT|INTERRES
   108   54  117 1    
   109   55   56 2    
   110   55   57 1    
   111   57   58 1    
   112   57   59 1    
   113   57  118 1    
   114   58  119 1    
   115   58  120 1    
   116   58  121 1    
   117   59   60 am   BACKBONE|DICT|INTERRES
   118   59  122 1    
   119   60   61 2    
   120   60   62 1    
   121   62   63 1    
   122   62   64 1    
   123   62  123 1    
   124   63  124 1    
   125   63  125 1    
   126   63  126 1    
   127   64   65 am   BACKBONE|DICT|INTERRES
   128   64  127 1    
   129   65   66 2    
@<TRIPOS>SUBSTRUCTURE
     1 UNK         1 GROUP             0       ****    0 ROOT    
