@<TRIPOS>MOLECULE
3R134
127   129    1
SMALL
USER_CHARGES


@<TRIPOS>ATOM
      1 CA         34.4166  -46.5853  -50.9464 C.3       0 UNK        -0.1968 
      2 C          35.3249  -46.3895  -52.1510 C.2       0 UNK         0.4852 
      3 O          36.5311  -46.6245  -52.0590 O.2       0 UNK        -0.5359 
      4 N          34.7550  -45.9779  -53.2895 N.am      1 UNK        -0.4300 
      5 CA         35.4246  -45.7468  -54.5766 C.3       1 UNK         0.0863 
      6 C6         34.6458  -44.7199  -55.4473 C.3       11 UNK        -0.0953 
      7 S7         32.8405  -45.0158  -55.5113 S.3       11 UNK        -0.2369 
      8 C8         32.2144  -43.5041  -54.7153 C.3       11 UNK         0.0226 
      9 C9         30.7588  -43.6413  -54.2933 C.ar      11 UNK        -0.0699 
     10 C10        30.4211  -43.6722  -52.9363 C.ar      11 UNK        -0.0804 
     11 C11        29.0833  -43.7522  -52.5381 C.ar      11 UNK        -0.0871 
     12 C12        28.0790  -43.8104  -53.5092 C.ar      11 UNK        -0.1008 
     13 C13        28.4050  -43.8023  -54.8679 C.ar      11 UNK        -0.0735 
     14 C14        29.7454  -43.7085  -55.2548 C.ar      11 UNK        -0.0945 
     15 C15        27.3112  -43.9051  -55.9181 C.3       11 UNK         0.0169 
     16 S16        26.9945  -42.2913  -56.6937 S.3       11 UNK        -0.2669 
     17 C17        25.6373  -42.7020  -57.8485 C.3       11 UNK        -0.0850 
     18 CA         25.9915  -42.7313  -59.3674 C.3       10 UNK         0.0855 
     19 C          26.6755  -41.4363  -59.9063 C.2       10 UNK         0.5543 
     20 N          27.6330  -41.5199  -60.8210 N.am      10 UNK        -0.7343 
     21 O          26.2893  -40.3312  -59.5324 O.2       10 UNK        -0.5027 
     22 N          26.5430  -44.0245  -59.8159 N.am      10 UNK        -0.4495 
     23 C          27.7701  -44.5202  -59.6167 C.2       10 UNK         0.4903 
     24 O          28.6917  -43.9263  -59.0560 O.2       10 UNK        -0.4860 
     25 CA         28.0240  -45.9189  -60.2008 C.3       9 UNK         0.0227 
     26 CB         28.7897  -45.8175  -61.5303 C.3       9 UNK        -0.1964 
     27 N          28.7814  -46.7520  -59.2667 N.am      9 UNK        -0.4231 
     28 C          28.2754  -47.2886  -58.1491 C.2       9 UNK         0.5014 
     29 O          27.0969  -47.1728  -57.8023 O.2       9 UNK        -0.5270 
     30 CA         29.2722  -48.0530  -57.2598 C.3       8 UNK         0.0284 
     31 CB         29.9180  -47.0953  -56.2474 C.3       8 UNK        -0.1977 
     32 N          28.6526  -49.1545  -56.5245 N.am      8 UNK        -0.4342 
     33 C          28.0753  -50.2362  -57.0632 C.2       8 UNK         0.5039 
     34 O          28.0394  -50.4674  -58.2729 O.2       8 UNK        -0.5547 
     35 CA         27.4429  -51.2421  -56.0887 C.3       7 UNK         0.0281 
     36 CB         28.4923  -52.2609  -55.6124 C.3       7 UNK        -0.1963 
     37 N          26.8560  -50.5793  -54.9212 N.am      7 UNK        -0.4444 
     38 C          25.5570  -50.2832  -54.7802 C.2       7 UNK         0.5104 
     39 O          24.7016  -50.5396  -55.6284 O.2       7 UNK        -0.5100 
     40 CA         25.1176  -49.6185  -53.4603 C.3       6 UNK         0.0396 
     41 CB         24.5006  -50.6662  -52.5194 C.3       6 UNK        -0.1801 
     42 N          26.2074  -48.9352  -52.7587 N.am      6 UNK        -0.4747 
     43 C          26.6748  -47.7200  -53.0799 C.2       6 UNK         0.5012 
     44 O          26.1892  -47.0155  -53.9642 O.2       6 UNK        -0.5003 
     45 CA         27.9005  -47.2060  -52.2921 C.3       5 UNK         0.0782 
     46 C46        27.4448  -46.2803  -51.1381 C.3       11 UNK        -0.0868 
     47 S47        28.8494  -45.4314  -50.3407 S.3       11 UNK        -0.2515 
     48 C48        28.7258  -43.7621  -51.0586 C.3       11 UNK         0.0199 
     49 N          28.7977  -48.2682  -51.8097 N.am      5 UNK        -0.4607 
     50 C          29.4058  -49.1754  -52.5812 C.2       4 UNK         0.5031 
     51 O          29.1881  -49.2981  -53.7874 O.2       4 UNK        -0.5119 
     52 CA         30.3611  -50.1543  -51.8825 C.3       4 UNK         0.0263 
     53 CB         29.5727  -51.3428  -51.3083 C.3       4 UNK        -0.1967 
     54 N          31.3653  -50.6588  -52.8210 N.am      4 UNK        -0.4237 
     55 C          32.3739  -49.9274  -53.3088 C.2       3 UNK         0.4908 
     56 O          32.6551  -48.7880  -52.9229 O.2       3 UNK        -0.5102 
     57 CA         33.1940  -50.5717  -54.4315 C.3       3 UNK         0.0241 
     58 CB         32.4606  -50.4492  -55.7823 C.3       3 UNK        -0.1971 
     59 N          34.4744  -49.8810  -54.4905 N.am      3 UNK        -0.4139 
     60 C          35.5912  -50.2859  -55.1031 C.2       2 UNK         0.5016 
     61 O          35.6882  -51.3567  -55.7054 O.2       2 UNK        -0.5319 
     62 CA         36.8128  -49.3451  -55.0071 C.3       2 UNK         0.0286 
     63 CB         37.6793  -49.3691  -56.2845 C.3       2 UNK        -0.1963 
     64 N          36.4699  -47.9653  -54.6237 N.am      2 UNK        -0.4790 
     65 C          35.7262  -47.0788  -55.3047 C.2       1 UNK         0.5024 
     66 O          35.2676  -47.2959  -56.4271 O.2       1 UNK        -0.4888 
     67 H67        34.4671  -47.6188  -50.6047 H         1 UNK         0.0892 
     68 H68        34.7296  -45.9372  -50.1286 H         1 UNK         0.0892 
     69 H69        33.3759  -46.3608  -51.1815 H         1 UNK         0.0892 
     70 H70        33.7515  -45.8581  -53.3209 H         1 UNK         0.3107 
     71 H71        36.4004  -45.3017  -54.3697 H         1 UNK         0.0773 
     72 H72        35.0333  -44.6883  -56.4673 H         1 UNK         0.0680 
     73 H73        34.8247  -43.7193  -55.0515 H         1 UNK         0.0680 
     74 H74        32.3168  -42.6665  -55.4066 H         1 UNK         0.0650 
     75 H75        32.8350  -43.2690  -53.8491 H         1 UNK         0.0650 
     76 H76        31.1980  -43.6231  -52.1855 H         1 UNK         0.1397 
     77 H77        27.0418  -43.8720  -53.2097 H         1 UNK         0.1363 
     78 H78        29.9977  -43.6893  -56.3069 H         1 UNK         0.1355 
     79 H79        27.6051  -44.6302  -56.6763 H         1 UNK         0.0707 
     80 H80        26.3894  -44.2840  -55.4734 H         1 UNK         0.0707 
     81 H81        25.1821  -43.6495  -57.5565 H         1 UNK         0.1034 
     82 H82        24.8572  -41.9563  -57.6856 H         1 UNK         0.1034 
     83 H83        25.0275  -42.7093  -59.8772 H         1 UNK         0.0482 
     84 H84        27.9707  -42.4206  -61.1186 H         1 UNK         0.3460 
     85 H85        28.0537  -40.6762  -61.1770 H         1 UNK         0.3460 
     86 H86        25.8905  -44.5965  -60.3331 H         1 UNK         0.2989 
     87 H87        27.0662  -46.4076  -60.3939 H         1 UNK         0.0559 
     88 H88        29.7623  -45.3401  -61.4023 H         1 UNK         0.0848 
     89 H89        28.2316  -45.2276  -62.2586 H         1 UNK         0.0848 
     90 H90        28.9535  -46.8011  -61.9711 H         1 UNK         0.0848 
     91 H91        29.7697  -46.8491  -59.4495 H         1 UNK         0.3144 
     92 H92        30.0545  -48.4779  -57.8921 H         1 UNK         0.0727 
     93 H93        30.6795  -47.5946  -55.6477 H         1 UNK         0.0790 
     94 H94        29.1779  -46.6780  -55.5632 H         1 UNK         0.0790 
     95 H95        30.4005  -46.2595  -56.7546 H         1 UNK         0.0790 
     96 H96        28.6944  -49.0908  -55.5097 H         1 UNK         0.3215 
     97 H97        26.6699  -51.7879  -56.6344 H         1 UNK         0.0863 
     98 H98        29.2850  -51.7860  -55.0341 H         1 UNK         0.0808 
     99 H99        28.9610  -52.7641  -56.4592 H         1 UNK         0.0808 
    100 H100       28.0393  -53.0311  -54.9881 H         1 UNK         0.0808 
    101 H101       27.5063  -50.2600  -54.2120 H         1 UNK         0.3118 
    102 H102       24.3438  -48.8868  -53.7028 H         1 UNK         0.0546 
    103 H103       25.2240  -51.4311  -52.2344 H         1 UNK         0.0828 
    104 H104       23.6619  -51.1743  -52.9977 H         1 UNK         0.0828 
    105 H105       24.1194  -50.2062  -51.6075 H         1 UNK         0.0828 
    106 H106       26.6579  -49.4386  -52.0080 H         1 UNK         0.3005 
    107 H107       28.4808  -46.6106  -53.0007 H         1 UNK         0.1257 
    108 H108       26.9182  -46.8562  -50.3748 H         1 UNK         0.0775 
    109 H109       26.7306  -45.5338  -51.4900 H         1 UNK         0.0775 
    110 H110       27.7215  -43.3658  -50.9004 H         1 UNK         0.0840 
    111 H111       29.3991  -43.0966  -50.5160 H         1 UNK         0.0840 
    112 H112       29.0209  -48.2348  -50.8253 H         1 UNK         0.2987 
    113 H113       30.8710  -49.6335  -51.0689 H         1 UNK         0.0785 
    114 H114       28.8373  -51.0097  -50.5747 H         1 UNK         0.0798 
    115 H115       29.0341  -51.8861  -52.0863 H         1 UNK         0.0798 
    116 H116       30.2323  -52.0484  -50.8026 H         1 UNK         0.0798 
    117 H117       31.1936  -51.5723  -53.2140 H         1 UNK         0.3079 
    118 H118       33.3646  -51.6227  -54.1896 H         1 UNK         0.0794 
    119 H119       31.4721  -50.9072  -55.7422 H         1 UNK         0.0786 
    120 H120       33.0121  -50.9438  -56.5819 H         1 UNK         0.0786 
    121 H121       32.3241  -49.4057  -56.0692 H         1 UNK         0.0786 
    122 H122       34.4789  -49.0006  -53.9899 H         1 UNK         0.3032 
    123 H123       37.4219  -49.7402  -54.1924 H         1 UNK         0.1094 
    124 H124       38.0663  -50.3708  -56.4755 H         1 UNK         0.0794 
    125 H125       37.1125  -49.0697  -57.1665 H         1 UNK         0.0794 
    126 H126       38.5384  -48.7044  -56.1946 H         1 UNK         0.0794 
    127 H127       36.7649  -47.6785  -53.6925 H         1 UNK         0.3016 
@<TRIPOS>BOND
     1    1    2 1    
     2    1   67 1    
     3    1   68 1    
     4    1   69 1    
     5    2    3 2    
     6    2    4 am   BACKBONE|DICT|INTERRES
     7    4    5 1    
     8    4   70 1    
     9    5    6 1    
    10    5   65 1    
    11    5   71 1    
    12    6    7 1    
    13    6   72 1    
    14    6   73 1    
    15    7    8 1    
    16    8    9 1    
    17    8   74 1    
    18    8   75 1    
    19    9   10 ar   
    20    9   14 ar   
    21   10   11 ar   
    22   10   76 1    
    23   11   12 ar   
    24   11   48 1    
    25   12   13 ar   
    26   12   77 1    
    27   13   14 ar   
    28   13   15 1    
    29   14   78 1    
    30   15   16 1    
    31   15   79 1    
    32   15   80 1    
    33   16   17 1    
    34   17   18 1    
    35   17   81 1    
    36   17   82 1    
    37   18   19 1    
    38   18   22 1    
    39   18   83 1    
    40   19   20 am   BACKBONE|DICT|INTERRES
    41   19   21 2    
    42   20   84 1    
    43   20   85 1    
    44   22   23 am   BACKBONE|DICT|INTERRES
    45   22   86 1    
    46   23   24 2    
    47   23   25 1    
    48   25   26 1    
    49   25   27 1    
    50   25   87 1    
    51   26   88 1    
    52   26   89 1    
    53   26   90 1    
    54   27   28 am   BACKBONE|DICT|INTERRES
    55   27   91 1    
    56   28   29 2    
    57   28   30 1    
    58   30   31 1    
    59   30   32 1    
    60   30   92 1    
    61   31   93 1    
    62   31   94 1    
    63   31   95 1    
    64   32   33 am   BACKBONE|DICT|INTERRES
    65   32   96 1    
    66   33   34 2    
    67   33   35 1    
    68   35   36 1    
    69   35   37 1    
    70   35   97 1    
    71   36   98 1    
    72   36   99 1    
    73   36  100 1    
    74   37   38 am   BACKBONE|DICT|INTERRES
    75   37  101 1    
    76   38   39 2    
    77   38   40 1    
    78   40   41 1    
    79   40   42 1    
    80   40  102 1    
    81   41  103 1    
    82   41  104 1    
    83   41  105 1    
    84   42   43 am   BACKBONE|DICT|INTERRES
    85   42  106 1    
    86   43   44 2    
    87   43   45 1    
    88   45   46 1    
    89   45   49 1    
    90   45  107 1    
    91   46   47 1    
    92   46  108 1    
    93   46  109 1    
    94   47   48 1    
    95   48  110 1    
    96   48  111 1    
    97   49   50 am   BACKBONE|DICT|INTERRES
    98   49  112 1    
    99   50   51 2    
   100   50   52 1    
   101   52   53 1    
   102   52   54 1    
   103   52  113 1    
   104   53  114 1    
   105   53  115 1    
   106   53  116 1    
   107   54   55 am   BACKBONE|DICT|INTERRES
   108   54  117 1    
   109   55   56 2    
   110   55   57 1    
   111   57   58 1    
   112   57   59 1    
   113   57  118 1    
   114   58  119 1    
   115   58  120 1    
   116   58  121 1    
   117   59   60 am   BACKBONE|DICT|INTERRES
   118   59  122 1    
   119   60   61 2    
   120   60   62 1    
   121   62   63 1    
   122   62   64 1    
   123   62  123 1    
   124   63  124 1    
   125   63  125 1    
   126   63  126 1    
   127   64   65 am   BACKBONE|DICT|INTERRES
   128   64  127 1    
   129   65   66 2    
@<TRIPOS>SUBSTRUCTURE
     1 UNK         1 GROUP             0       ****    0 ROOT    
