@<TRIPOS>MOLECULE
3R134
127   129    1
SMALL
USER_CHARGES


@<TRIPOS>ATOM
      1 CA         37.9748  -45.5979  -56.7887 C.3       0 UNK        -0.1968 
      2 C          36.7275  -46.0808  -56.0640 C.2       0 UNK         0.4852 
      3 O          36.1486  -47.0982  -56.4507 O.2       0 UNK        -0.5359 
      4 N          36.3111  -45.3706  -55.0065 N.am      1 UNK        -0.4300 
      5 CA         35.1375  -45.6760  -54.1804 C.3       1 UNK         0.0863 
      6 C6         34.5921  -44.3942  -53.4937 C.3       11 UNK        -0.0953 
      7 S7         32.8491  -44.5708  -52.9837 S.3       11 UNK        -0.2369 
      8 C8         32.0234  -43.3296  -54.0343 C.3       11 UNK         0.0226 
      9 C9         30.5067  -43.4253  -53.9266 C.ar      11 UNK        -0.0699 
     10 C10        29.8837  -43.2890  -52.6824 C.ar      11 UNK        -0.0804 
     11 C11        28.4990  -43.4294  -52.5613 C.ar      11 UNK        -0.0871 
     12 C12        27.7258  -43.6336  -53.7060 C.ar      11 UNK        -0.1008 
     13 C13        28.3366  -43.8028  -54.9502 C.ar      11 UNK        -0.0735 
     14 C14        29.7267  -43.6877  -55.0587 C.ar      11 UNK        -0.0945 
     15 C15        27.4948  -44.2258  -56.1420 C.3       11 UNK         0.0169 
     16 S16        26.8634  -42.8188  -57.1019 S.3       11 UNK        -0.2669 
     17 C17        28.2126  -42.5356  -58.2985 C.3       11 UNK        -0.0850 
     18 CA         27.9158  -43.1685  -59.6921 C.3       10 UNK         0.0855 
     19 C          28.8497  -42.6208  -60.8172 C.2       10 UNK         0.5543 
     20 N          29.1564  -43.3934  -61.8525 N.am      10 UNK        -0.7343 
     21 O          29.2764  -41.4693  -60.7746 O.2       10 UNK        -0.5027 
     22 N          27.8031  -44.6412  -59.6465 N.am      10 UNK        -0.4495 
     23 C          28.7920  -45.5006  -59.3660 C.2       10 UNK         0.4903 
     24 O          29.9385  -45.1599  -59.0722 O.2       10 UNK        -0.4860 
     25 CA         28.4154  -46.9905  -59.3851 C.3       9 UNK         0.0227 
     26 CB         29.6456  -47.9163  -59.3484 C.3       9 UNK        -0.1964 
     27 N          27.5483  -47.3141  -58.2534 N.am      9 UNK        -0.4231 
     28 C          26.2101  -47.2640  -58.2580 C.2       9 UNK         0.5014 
     29 O          25.5469  -46.8628  -59.2168 O.2       9 UNK        -0.5270 
     30 CA         25.5117  -47.7578  -56.9736 C.3       8 UNK         0.0284 
     31 CB         23.9966  -47.9926  -57.1501 C.3       8 UNK        -0.1977 
     32 N          26.1792  -48.9377  -56.4057 N.am      8 UNK        -0.4342 
     33 C          26.3167  -50.1517  -56.9612 C.2       8 UNK         0.5039 
     34 O          25.7702  -50.4990  -58.0088 O.2       8 UNK        -0.5547 
     35 CA         27.2568  -51.1463  -56.2529 C.3       7 UNK         0.0281 
     36 CB         28.6096  -51.2041  -56.9810 C.3       7 UNK        -0.1963 
     37 N          27.4927  -50.8419  -54.8385 N.am      7 UNK        -0.4444 
     38 C          26.5963  -51.0339  -53.8604 C.2       7 UNK         0.5104 
     39 O          25.4702  -51.4976  -54.0406 O.2       7 UNK        -0.5100 
     40 CA         27.0271  -50.6220  -52.4435 C.3       6 UNK         0.0396 
     41 CB         27.8841  -51.7187  -51.7905 C.3       6 UNK        -0.1801 
     42 N          27.7615  -49.3549  -52.4485 N.am      6 UNK        -0.4747 
     43 C          27.1832  -48.1509  -52.5775 C.2       6 UNK         0.5012 
     44 O          25.9653  -47.9870  -52.6528 O.2       6 UNK        -0.5003 
     45 CA         28.1204  -46.9298  -52.6806 C.3       5 UNK         0.0782 
     46 C46        28.3994  -46.2811  -51.2952 C.3       11 UNK        -0.0868 
     47 S47        27.0957  -45.0879  -50.8165 S.3       11 UNK        -0.2515 
     48 C48        27.8513  -43.4612  -51.1842 C.3       11 UNK         0.0199 
     49 N          29.3558  -47.2388  -53.4100 N.am      5 UNK        -0.4607 
     50 C          29.4094  -47.4832  -54.7277 C.2       4 UNK         0.5031 
     51 O          28.4356  -47.4239  -55.4766 O.2       4 UNK        -0.5119 
     52 CA         30.7587  -47.9209  -55.3178 C.3       4 UNK         0.0263 
     53 CB         31.5032  -46.7295  -55.9345 C.3       4 UNK        -0.1967 
     54 N          31.6269  -48.6236  -54.3688 N.am      4 UNK        -0.4237 
     55 C          31.3395  -49.8175  -53.8262 C.2       3 UNK         0.4908 
     56 O          30.2640  -50.3927  -54.0042 O.2       3 UNK        -0.5102 
     57 CA         32.4192  -50.4758  -52.9504 C.3       3 UNK         0.0241 
     58 CB         32.4010  -52.0138  -53.0591 C.3       3 UNK        -0.1971 
     59 N          33.7532  -49.9637  -53.2759 N.am      3 UNK        -0.4139 
     60 C          34.7768  -49.8658  -52.4185 C.2       2 UNK         0.5016 
     61 O          34.7324  -50.2285  -51.2425 O.2       2 UNK        -0.5319 
     62 CA         36.0621  -49.2283  -52.9709 C.3       2 UNK         0.0286 
     63 CB         36.8389  -50.2230  -53.8492 C.3       2 UNK        -0.1963 
     64 N          35.7851  -48.0080  -53.7354 N.am      2 UNK        -0.4790 
     65 C          35.4310  -46.8342  -53.1937 C.2       1 UNK         0.5024 
     66 O          35.3587  -46.6525  -51.9773 O.2       1 UNK        -0.4888 
     67 H67        38.3805  -44.6901  -56.3427 H         1 UNK         0.0892 
     68 H68        38.7471  -46.3660  -56.7576 H         1 UNK         0.0892 
     69 H69        37.7436  -45.3887  -57.8328 H         1 UNK         0.0892 
     70 H70        36.8491  -44.5668  -54.7143 H         1 UNK         0.3107 
     71 H71        34.3580  -46.0351  -54.8560 H         1 UNK         0.0773 
     72 H72        35.1939  -44.1152  -52.6268 H         1 UNK         0.0680 
     73 H73        34.6608  -43.5481  -54.1794 H         1 UNK         0.0680 
     74 H74        32.3443  -42.3312  -53.7345 H         1 UNK         0.0650 
     75 H75        32.3437  -43.4668  -55.0684 H         1 UNK         0.0650 
     76 H76        30.4887  -43.1278  -51.8005 H         1 UNK         0.1397 
     77 H77        26.6550  -43.7547  -53.6120 H         1 UNK         0.1363 
     78 H78        30.2031  -43.8361  -56.0176 H         1 UNK         0.1355 
     79 H79        28.0707  -44.8969  -56.7749 H         1 UNK         0.0707 
     80 H80        26.6429  -44.8111  -55.7943 H         1 UNK         0.0707 
     81 H81        29.1619  -42.8927  -57.8999 H         1 UNK         0.1034 
     82 H82        28.3209  -41.4531  -58.3847 H         1 UNK         0.1034 
     83 H83        26.9258  -42.8216  -59.9903 H         1 UNK         0.0482 
     84 H84        29.7502  -43.0304  -62.5815 H         1 UNK         0.3460 
     85 H85        28.8020  -44.3343  -61.9098 H         1 UNK         0.3460 
     86 H86        26.8862  -45.0209  -59.8457 H         1 UNK         0.2989 
     87 H87        27.8864  -47.1869  -60.3201 H         1 UNK         0.0559 
     88 H88        30.2253  -47.7892  -58.4349 H         1 UNK         0.0848 
     89 H89        30.3121  -47.7114  -60.1871 H         1 UNK         0.0848 
     90 H90        29.3539  -48.9645  -59.4162 H         1 UNK         0.0848 
     91 H91        28.0028  -47.5460  -57.3745 H         1 UNK         0.3144 
     92 H92        25.6336  -46.9629  -56.2370 H         1 UNK         0.0727 
     93 H93        23.7863  -48.7291  -57.9260 H         1 UNK         0.0790 
     94 H94        23.4910  -47.0693  -57.4355 H         1 UNK         0.0790 
     95 H95        23.5392  -48.3399  -56.2237 H         1 UNK         0.0790 
     96 H96        26.7399  -48.7479  -55.5837 H         1 UNK         0.3215 
     97 H97        26.7939  -52.1337  -56.3150 H         1 UNK         0.0863 
     98 H98        29.1056  -50.2342  -56.9837 H         1 UNK         0.0808 
     99 H99        28.4801  -51.5050  -58.0216 H         1 UNK         0.0808 
    100 H100       29.2830  -51.9246  -56.5160 H         1 UNK         0.0808 
    101 H101       28.4252  -50.5260  -54.5824 H         1 UNK         0.3118 
    102 H102       26.1251  -50.5001  -51.8397 H         1 UNK         0.0546 
    103 H103       28.1554  -51.4542  -50.7685 H         1 UNK         0.0828 
    104 H104       28.8046  -51.9041  -52.3445 H         1 UNK         0.0828 
    105 H105       27.3380  -52.6619  -51.7457 H         1 UNK         0.0828 
    106 H106       28.7703  -49.4150  -52.4585 H         1 UNK         0.3005 
    107 H107       27.5821  -46.2104  -53.2972 H         1 UNK         0.1257 
    108 H108       29.3558  -45.7567  -51.3011 H         1 UNK         0.0775 
    109 H109       28.4944  -47.0360  -50.5122 H         1 UNK         0.0775 
    110 H110       27.0839  -42.6882  -51.1264 H         1 UNK         0.0840 
    111 H111       28.5808  -43.2295  -50.4065 H         1 UNK         0.0840 
    112 H112       30.2061  -47.2927  -52.8699 H         1 UNK         0.2987 
    113 H113       30.5378  -48.6202  -56.1251 H         1 UNK         0.0785 
    114 H114       32.4054  -47.0475  -56.4573 H         1 UNK         0.0798 
    115 H115       30.8764  -46.2098  -56.6603 H         1 UNK         0.0798 
    116 H116       31.7882  -46.0020  -55.1794 H         1 UNK         0.0798 
    117 H117       32.4955  -48.1730  -54.1254 H         1 UNK         0.3079 
    118 H118       32.1776  -50.2014  -51.9214 H         1 UNK         0.0794 
    119 H119       33.1422  -52.4682  -52.4016 H         1 UNK         0.0786 
    120 H120       32.6075  -52.3454  -54.0772 H         1 UNK         0.0786 
    121 H121       31.4295  -52.4191  -52.7731 H         1 UNK         0.0786 
    122 H122       33.9036  -49.6809  -54.2343 H         1 UNK         0.3032 
    123 H123       36.6927  -48.9661  -52.1178 H         1 UNK         0.1094 
    124 H124       36.2788  -50.5055  -54.7413 H         1 UNK         0.0794 
    125 H125       37.7918  -49.8033  -54.1724 H         1 UNK         0.0794 
    126 H126       37.0599  -51.1387  -53.2987 H         1 UNK         0.0794 
    127 H127       35.8833  -48.0459  -54.7469 H         1 UNK         0.3016 
@<TRIPOS>BOND
     1    1    2 1    
     2    1   67 1    
     3    1   68 1    
     4    1   69 1    
     5    2    3 2    
     6    2    4 am   BACKBONE|DICT|INTERRES
     7    4    5 1    
     8    4   70 1    
     9    5    6 1    
    10    5   65 1    
    11    5   71 1    
    12    6    7 1    
    13    6   72 1    
    14    6   73 1    
    15    7    8 1    
    16    8    9 1    
    17    8   74 1    
    18    8   75 1    
    19    9   10 ar   
    20    9   14 ar   
    21   10   11 ar   
    22   10   76 1    
    23   11   12 ar   
    24   11   48 1    
    25   12   13 ar   
    26   12   77 1    
    27   13   14 ar   
    28   13   15 1    
    29   14   78 1    
    30   15   16 1    
    31   15   79 1    
    32   15   80 1    
    33   16   17 1    
    34   17   18 1    
    35   17   81 1    
    36   17   82 1    
    37   18   19 1    
    38   18   22 1    
    39   18   83 1    
    40   19   20 am   BACKBONE|DICT|INTERRES
    41   19   21 2    
    42   20   84 1    
    43   20   85 1    
    44   22   23 am   BACKBONE|DICT|INTERRES
    45   22   86 1    
    46   23   24 2    
    47   23   25 1    
    48   25   26 1    
    49   25   27 1    
    50   25   87 1    
    51   26   88 1    
    52   26   89 1    
    53   26   90 1    
    54   27   28 am   BACKBONE|DICT|INTERRES
    55   27   91 1    
    56   28   29 2    
    57   28   30 1    
    58   30   31 1    
    59   30   32 1    
    60   30   92 1    
    61   31   93 1    
    62   31   94 1    
    63   31   95 1    
    64   32   33 am   BACKBONE|DICT|INTERRES
    65   32   96 1    
    66   33   34 2    
    67   33   35 1    
    68   35   36 1    
    69   35   37 1    
    70   35   97 1    
    71   36   98 1    
    72   36   99 1    
    73   36  100 1    
    74   37   38 am   BACKBONE|DICT|INTERRES
    75   37  101 1    
    76   38   39 2    
    77   38   40 1    
    78   40   41 1    
    79   40   42 1    
    80   40  102 1    
    81   41  103 1    
    82   41  104 1    
    83   41  105 1    
    84   42   43 am   BACKBONE|DICT|INTERRES
    85   42  106 1    
    86   43   44 2    
    87   43   45 1    
    88   45   46 1    
    89   45   49 1    
    90   45  107 1    
    91   46   47 1    
    92   46  108 1    
    93   46  109 1    
    94   47   48 1    
    95   48  110 1    
    96   48  111 1    
    97   49   50 am   BACKBONE|DICT|INTERRES
    98   49  112 1    
    99   50   51 2    
   100   50   52 1    
   101   52   53 1    
   102   52   54 1    
   103   52  113 1    
   104   53  114 1    
   105   53  115 1    
   106   53  116 1    
   107   54   55 am   BACKBONE|DICT|INTERRES
   108   54  117 1    
   109   55   56 2    
   110   55   57 1    
   111   57   58 1    
   112   57   59 1    
   113   57  118 1    
   114   58  119 1    
   115   58  120 1    
   116   58  121 1    
   117   59   60 am   BACKBONE|DICT|INTERRES
   118   59  122 1    
   119   60   61 2    
   120   60   62 1    
   121   62   63 1    
   122   62   64 1    
   123   62  123 1    
   124   63  124 1    
   125   63  125 1    
   126   63  126 1    
   127   64   65 am   BACKBONE|DICT|INTERRES
   128   64  127 1    
   129   65   66 2    
@<TRIPOS>SUBSTRUCTURE
     1 UNK         1 GROUP             0       ****    0 ROOT    
