@<TRIPOS>MOLECULE
3R134
127   129    1
SMALL
USER_CHARGES


@<TRIPOS>ATOM
      1 CA         36.5631  -43.2735  -50.2519 C.3       0 UNK        -0.1968 
      2 C          36.6035  -44.3557  -51.3211 C.2       0 UNK         0.4852 
      3 O          37.5678  -45.1203  -51.3816 O.2       0 UNK        -0.5359 
      4 N          35.5674  -44.4205  -52.1662 N.am      1 UNK        -0.4300 
      5 CA         35.4045  -45.4299  -53.2151 C.3       1 UNK         0.0863 
      6 C6         34.3695  -45.0032  -54.2853 C.3       11 UNK        -0.0953 
      7 S7         34.8171  -43.4671  -55.1678 S.3       11 UNK        -0.2369 
      8 C8         33.9503  -42.1625  -54.2297 C.3       11 UNK         0.0226 
      9 C9         32.4385  -42.3392  -54.2336 C.ar      11 UNK        -0.0699 
     10 C10        31.7919  -42.8911  -53.1248 C.ar      11 UNK        -0.0804 
     11 C11        30.4089  -43.0907  -53.1315 C.ar      11 UNK        -0.0871 
     12 C12        29.6631  -42.7049  -54.2495 C.ar      11 UNK        -0.1008 
     13 C13        30.2953  -42.1216  -55.3531 C.ar      11 UNK        -0.0735 
     14 C14        31.6828  -41.9439  -55.3401 C.ar      11 UNK        -0.0945 
     15 C15        29.4819  -41.6596  -56.5531 C.3       11 UNK         0.0169 
     16 S16        29.8393  -42.6381  -58.0449 S.3       11 UNK        -0.2669 
     17 C17        29.0175  -44.2207  -57.6572 C.3       11 UNK        -0.0850 
     18 CA         27.5607  -44.2891  -58.1827 C.3       10 UNK         0.0855 
     19 C          27.4978  -44.3060  -59.7366 C.2       10 UNK         0.5543 
     20 N          26.9604  -43.2628  -60.3543 N.am      10 UNK        -0.7343 
     21 O          27.9640  -45.2432  -60.3804 O.2       10 UNK        -0.5027 
     22 N          26.8764  -45.4527  -57.6118 N.am      10 UNK        -0.4495 
     23 C          25.5635  -45.7027  -57.7033 C.2       10 UNK         0.4903 
     24 O          24.7371  -44.8971  -58.1347 O.2       10 UNK        -0.4860 
     25 CA         25.1187  -47.1056  -57.2465 C.3       9 UNK         0.0227 
     26 CB         23.6585  -47.4422  -57.6151 C.3       9 UNK        -0.1964 
     27 N          26.0459  -48.1392  -57.7211 N.am      9 UNK        -0.4231 
     28 C          26.3289  -48.4661  -58.9935 C.2       9 UNK         0.5014 
     29 O          25.7232  -48.0329  -59.9740 O.2       9 UNK        -0.5270 
     30 CA         27.5049  -49.4333  -59.2136 C.3       8 UNK         0.0284 
     31 CB         28.7781  -48.6571  -59.5922 C.3       8 UNK        -0.1977 
     32 N          27.7695  -50.2522  -58.0280 N.am      8 UNK        -0.4342 
     33 C          27.1857  -51.4333  -57.7889 C.2       8 UNK         0.5039 
     34 O          26.4312  -52.0048  -58.5769 O.2       8 UNK        -0.5547 
     35 CA         27.4807  -52.0706  -56.4242 C.3       7 UNK         0.0281 
     36 CB         28.9047  -52.6496  -56.3821 C.3       7 UNK        -0.1963 
     37 N          27.2888  -51.1291  -55.3165 N.am      7 UNK        -0.4444 
     38 C          26.0902  -50.6889  -54.9038 C.2       7 UNK         0.5104 
     39 O          25.0280  -50.9982  -55.4433 O.2       7 UNK        -0.5100 
     40 CA         26.0520  -49.7579  -53.6841 C.3       6 UNK         0.0396 
     41 CB         26.0864  -50.5790  -52.3848 C.3       6 UNK        -0.1801 
     42 N          27.1589  -48.7999  -53.6771 N.am      6 UNK        -0.4747 
     43 C          27.0195  -47.4667  -53.6105 C.2       6 UNK         0.5012 
     44 O          25.9328  -46.8883  -53.5905 O.2       6 UNK        -0.5003 
     45 CA         28.3126  -46.6266  -53.5276 C.3       5 UNK         0.0782 
     46 C46        28.6217  -46.3277  -52.0379 C.3       11 UNK        -0.0868 
     47 S47        30.2051  -45.4694  -51.7563 S.3       11 UNK        -0.2515 
     48 C48        29.7362  -43.7177  -51.9207 C.3       11 UNK         0.0199 
     49 N          29.4490  -47.2481  -54.2138 N.am      5 UNK        -0.4607 
     50 C          29.5017  -47.5757  -55.5099 C.2       4 UNK         0.5031 
     51 O          28.5899  -47.3656  -56.3101 O.2       4 UNK        -0.5119 
     52 CA         30.7656  -48.3043  -55.9928 C.3       4 UNK         0.0263 
     53 CB         31.7694  -47.2841  -56.5509 C.3       4 UNK        -0.1967 
     54 N          31.4378  -49.1426  -54.9903 N.am      4 UNK        -0.4237 
     55 C          30.8919  -50.0837  -54.2079 C.2       3 UNK         0.4908 
     56 O          29.6799  -50.3010  -54.1500 O.2       3 UNK        -0.5102 
     57 CA         31.8351  -50.9418  -53.3408 C.3       3 UNK         0.0241 
     58 CB         32.2185  -52.2315  -54.0912 C.3       3 UNK        -0.1971 
     59 N          33.0351  -50.2762  -52.8015 N.am      3 UNK        -0.4139 
     60 C          34.0712  -49.7346  -53.4582 C.2       2 UNK         0.5016 
     61 O          34.1386  -49.6315  -54.6854 O.2       2 UNK        -0.5319 
     62 CA         35.2412  -49.2252  -52.6051 C.3       2 UNK         0.0286 
     63 CB         36.4627  -50.1463  -52.7583 C.3       2 UNK        -0.1963 
     64 N          35.6031  -47.8702  -53.0201 N.am      2 UNK        -0.4790 
     65 C          34.9833  -46.7690  -52.5804 C.2       1 UNK         0.5024 
     66 O          34.0927  -46.7836  -51.7270 O.2       1 UNK        -0.4888 
     67 H67        36.5858  -43.7250  -49.2605 H         1 UNK         0.0892 
     68 H68        37.4286  -42.6186  -50.3484 H         1 UNK         0.0892 
     69 H69        35.6650  -42.6601  -50.3246 H         1 UNK         0.0892 
     70 H70        34.7862  -43.7965  -52.0401 H         1 UNK         0.3107 
     71 H71        36.3693  -45.5646  -53.7096 H         1 UNK         0.0773 
     72 H72        34.2912  -45.7825  -55.0455 H         1 UNK         0.0680 
     73 H73        33.3719  -44.9179  -53.8556 H         1 UNK         0.0680 
     74 H74        34.3319  -42.1287  -53.2091 H         1 UNK         0.0650 
     75 H75        34.1996  -41.1967  -54.6716 H         1 UNK         0.0650 
     76 H76        32.3659  -43.1925  -52.2595 H         1 UNK         0.1397 
     77 H77        28.5912  -42.8483  -54.2570 H         1 UNK         0.1363 
     78 H78        32.1752  -41.5048  -56.1972 H         1 UNK         0.1355 
     79 H79        28.4119  -41.6973  -56.3425 H         1 UNK         0.0707 
     80 H80        29.7159  -40.6137  -56.7565 H         1 UNK         0.0707 
     81 H81        29.6131  -45.0332  -58.0774 H         1 UNK         0.1034 
     82 H82        29.0377  -44.3737  -56.5774 H         1 UNK         0.1034 
     83 H83        27.0323  -43.4054  -57.8192 H         1 UNK         0.0482 
     84 H84        26.9246  -43.2537  -61.3614 H         1 UNK         0.3460 
     85 H85        26.5823  -42.4884  -59.8315 H         1 UNK         0.3460 
     86 H86        27.4787  -46.1834  -57.2415 H         1 UNK         0.2989 
     87 H87        25.1886  -47.1102  -56.1590 H         1 UNK         0.0559 
     88 H88        22.9681  -46.7411  -57.1449 H         1 UNK         0.0848 
     89 H89        23.3857  -48.4419  -57.2768 H         1 UNK         0.0848 
     90 H90        23.4866  -47.3922  -58.6906 H         1 UNK         0.0848 
     91 H91        26.6487  -48.5260  -57.0095 H         1 UNK         0.3144 
     92 H92        27.2473  -50.0810  -60.0546 H         1 UNK         0.0727 
     93 H93        29.0678  -47.9411  -58.8236 H         1 UNK         0.0790 
     94 H94        28.6245  -48.0908  -60.5120 H         1 UNK         0.0790 
     95 H95        29.6193  -49.3289  -59.7628 H         1 UNK         0.0790 
     96 H96        28.3799  -49.8633  -57.3251 H         1 UNK         0.3215 
     97 H97        26.7803  -52.8978  -56.2876 H         1 UNK         0.0863 
     98 H98        29.0913  -53.1653  -55.4402 H         1 UNK         0.0808 
     99 H99        29.6658  -51.8775  -56.4983 H         1 UNK         0.0808 
    100 H100       29.0533  -53.3757  -57.1825 H         1 UNK         0.0808 
    101 H101       28.1276  -50.8452  -54.8124 H         1 UNK         0.3118 
    102 H102       25.0958  -49.2317  -53.7208 H         1 UNK         0.0546 
    103 H103       27.0235  -51.1267  -52.2768 H         1 UNK         0.0828 
    104 H104       25.2757  -51.3086  -52.3608 H         1 UNK         0.0828 
    105 H105       25.9707  -49.9386  -51.5104 H         1 UNK         0.0828 
    106 H106       28.0981  -49.1852  -53.7131 H         1 UNK         0.3005 
    107 H107       28.1128  -45.6809  -54.0359 H         1 UNK         0.1257 
    108 H108       27.8145  -45.7493  -51.5840 H         1 UNK         0.0775 
    109 H109       28.6704  -47.2596  -51.4703 H         1 UNK         0.0775 
    110 H110       28.6524  -43.6089  -51.9788 H         1 UNK         0.0840 
    111 H111       30.0459  -43.1841  -51.0209 H         1 UNK         0.0840 
    112 H112       30.2532  -47.4469  -53.6370 H         1 UNK         0.2987 
    113 H113       30.4668  -48.9675  -56.8059 H         1 UNK         0.0785 
    114 H114       31.3276  -46.7020  -57.3605 H         1 UNK         0.0798 
    115 H115       32.6558  -47.7748  -56.9538 H         1 UNK         0.0798 
    116 H116       32.0938  -46.5805  -55.7834 H         1 UNK         0.0798 
    117 H117       32.4565  -49.1065  -54.9834 H         1 UNK         0.3079 
    118 H118       31.2510  -51.2364  -52.4674 H         1 UNK         0.0794 
    119 H119       32.8091  -52.8963  -53.4609 H         1 UNK         0.0786 
    120 H120       32.7971  -52.0222  -54.9917 H         1 UNK         0.0786 
    121 H121       31.3301  -52.7845  -54.3979 H         1 UNK         0.0786 
    122 H122       33.0766  -50.2603  -51.7914 H         1 UNK         0.3032 
    123 H123       34.9501  -49.2177  -51.5517 H         1 UNK         0.1094 
    124 H124       36.8036  -50.2000  -53.7933 H         1 UNK         0.0794 
    125 H125       37.2978  -49.8025  -52.1476 H         1 UNK         0.0794 
    126 H126       36.2265  -51.1629  -52.4406 H         1 UNK         0.0794 
    127 H127       36.2896  -47.7923  -53.7573 H         1 UNK         0.3016 
@<TRIPOS>BOND
     1    1    2 1    
     2    1   67 1    
     3    1   68 1    
     4    1   69 1    
     5    2    3 2    
     6    2    4 am   BACKBONE|DICT|INTERRES
     7    4    5 1    
     8    4   70 1    
     9    5    6 1    
    10    5   65 1    
    11    5   71 1    
    12    6    7 1    
    13    6   72 1    
    14    6   73 1    
    15    7    8 1    
    16    8    9 1    
    17    8   74 1    
    18    8   75 1    
    19    9   10 ar   
    20    9   14 ar   
    21   10   11 ar   
    22   10   76 1    
    23   11   12 ar   
    24   11   48 1    
    25   12   13 ar   
    26   12   77 1    
    27   13   14 ar   
    28   13   15 1    
    29   14   78 1    
    30   15   16 1    
    31   15   79 1    
    32   15   80 1    
    33   16   17 1    
    34   17   18 1    
    35   17   81 1    
    36   17   82 1    
    37   18   19 1    
    38   18   22 1    
    39   18   83 1    
    40   19   20 am   BACKBONE|DICT|INTERRES
    41   19   21 2    
    42   20   84 1    
    43   20   85 1    
    44   22   23 am   BACKBONE|DICT|INTERRES
    45   22   86 1    
    46   23   24 2    
    47   23   25 1    
    48   25   26 1    
    49   25   27 1    
    50   25   87 1    
    51   26   88 1    
    52   26   89 1    
    53   26   90 1    
    54   27   28 am   BACKBONE|DICT|INTERRES
    55   27   91 1    
    56   28   29 2    
    57   28   30 1    
    58   30   31 1    
    59   30   32 1    
    60   30   92 1    
    61   31   93 1    
    62   31   94 1    
    63   31   95 1    
    64   32   33 am   BACKBONE|DICT|INTERRES
    65   32   96 1    
    66   33   34 2    
    67   33   35 1    
    68   35   36 1    
    69   35   37 1    
    70   35   97 1    
    71   36   98 1    
    72   36   99 1    
    73   36  100 1    
    74   37   38 am   BACKBONE|DICT|INTERRES
    75   37  101 1    
    76   38   39 2    
    77   38   40 1    
    78   40   41 1    
    79   40   42 1    
    80   40  102 1    
    81   41  103 1    
    82   41  104 1    
    83   41  105 1    
    84   42   43 am   BACKBONE|DICT|INTERRES
    85   42  106 1    
    86   43   44 2    
    87   43   45 1    
    88   45   46 1    
    89   45   49 1    
    90   45  107 1    
    91   46   47 1    
    92   46  108 1    
    93   46  109 1    
    94   47   48 1    
    95   48  110 1    
    96   48  111 1    
    97   49   50 am   BACKBONE|DICT|INTERRES
    98   49  112 1    
    99   50   51 2    
   100   50   52 1    
   101   52   53 1    
   102   52   54 1    
   103   52  113 1    
   104   53  114 1    
   105   53  115 1    
   106   53  116 1    
   107   54   55 am   BACKBONE|DICT|INTERRES
   108   54  117 1    
   109   55   56 2    
   110   55   57 1    
   111   57   58 1    
   112   57   59 1    
   113   57  118 1    
   114   58  119 1    
   115   58  120 1    
   116   58  121 1    
   117   59   60 am   BACKBONE|DICT|INTERRES
   118   59  122 1    
   119   60   61 2    
   120   60   62 1    
   121   62   63 1    
   122   62   64 1    
   123   62  123 1    
   124   63  124 1    
   125   63  125 1    
   126   63  126 1    
   127   64   65 am   BACKBONE|DICT|INTERRES
   128   64  127 1    
   129   65   66 2    
@<TRIPOS>SUBSTRUCTURE
     1 UNK         1 GROUP             0       ****    0 ROOT    
