@<TRIPOS>MOLECULE
3R134
127   129    1
SMALL
USER_CHARGES


@<TRIPOS>ATOM
      1 CA         36.7482  -50.4653  -55.9056 C.3       0 UNK        -0.1968 
      2 C          35.5305  -49.6348  -55.5321 C.2       0 UNK         0.4852 
      3 O          34.8193  -49.9924  -54.5909 O.2       0 UNK        -0.5359 
      4 N          35.2979  -48.5236  -56.2503 N.am      1 UNK        -0.4300 
      5 CA         34.1634  -47.5988  -56.0948 C.3       1 UNK         0.0863 
      6 C6         34.2851  -46.3912  -57.0628 C.3       11 UNK        -0.0953 
      7 S7         32.7562  -45.3977  -57.1954 S.3       11 UNK        -0.2369 
      8 C8         33.1531  -43.9489  -56.1633 C.3       11 UNK         0.0226 
      9 C9         31.9561  -43.5230  -55.3255 C.ar      11 UNK        -0.0699 
     10 C10        31.7882  -44.0357  -54.0374 C.ar      11 UNK        -0.0804 
     11 C11        30.6937  -43.6663  -53.2530 C.ar      11 UNK        -0.0871 
     12 C12        29.7698  -42.7493  -53.7628 C.ar      11 UNK        -0.1008 
     13 C13        29.9376  -42.1993  -55.0391 C.ar      11 UNK        -0.0735 
     14 C14        31.0316  -42.5980  -55.8186 C.ar      11 UNK        -0.0945 
     15 C15        28.9753  -41.1133  -55.5137 C.3       11 UNK         0.0169 
     16 S16        28.5717  -41.1666  -57.2950 S.3       11 UNK        -0.2669 
     17 C17        27.3489  -42.5078  -57.5588 C.3       11 UNK        -0.0850 
     18 CA         26.7485  -43.2674  -56.3348 C.3       10 UNK         0.0855 
     19 C          25.6448  -42.4765  -55.5632 C.2       10 UNK         0.5543 
     20 N          24.8100  -43.1447  -54.7757 N.am      10 UNK        -0.7343 
     21 O          25.5375  -41.2572  -55.6649 O.2       10 UNK        -0.5027 
     22 N          26.3274  -44.6283  -56.7124 N.am      10 UNK        -0.4495 
     23 C          25.3644  -44.9226  -57.5999 C.2       10 UNK         0.4903 
     24 O          24.6864  -44.0784  -58.1886 O.2       10 UNK        -0.4860 
     25 CA         25.1405  -46.4179  -57.8844 C.3       9 UNK         0.0227 
     26 CB         24.2142  -46.6809  -59.0904 C.3       9 UNK        -0.1964 
     27 N          26.4032  -47.1467  -58.0261 N.am      9 UNK        -0.4231 
     28 C          27.3780  -46.9624  -58.9304 C.2       9 UNK         0.5014 
     29 O          27.3339  -46.1350  -59.8416 O.2       9 UNK        -0.5270 
     30 CA         28.6274  -47.8547  -58.7883 C.3       8 UNK         0.0284 
     31 CB         29.7652  -47.0723  -58.1151 C.3       8 UNK        -0.1977 
     32 N          28.3780  -49.0792  -58.0227 N.am      8 UNK        -0.4342 
     33 C          27.6014  -50.0933  -58.4320 C.2       8 UNK         0.5039 
     34 O          27.1131  -50.1763  -59.5593 O.2       8 UNK        -0.5547 
     35 CA         27.2730  -51.1667  -57.3842 C.3       7 UNK         0.0281 
     36 CB         28.3920  -52.2155  -57.3155 C.3       7 UNK        -0.1963 
     37 N          27.0531  -50.5725  -56.0608 N.am      7 UNK        -0.4444 
     38 C          25.9404  -49.9089  -55.7130 C.2       7 UNK         0.5104 
     39 O          24.9676  -49.7713  -56.4534 O.2       7 UNK        -0.5100 
     40 CA         25.9090  -49.2667  -54.3164 C.3       6 UNK         0.0396 
     41 CB         25.3568  -50.2593  -53.2817 C.3       6 UNK        -0.1801 
     42 N          27.2188  -48.7833  -53.8764 N.am      6 UNK        -0.4747 
     43 C          27.8341  -47.6897  -54.3519 C.2       6 UNK         0.5012 
     44 O          27.3561  -46.9526  -55.2153 O.2       6 UNK        -0.5003 
     45 CA         29.2254  -47.3778  -53.7644 C.3       5 UNK         0.0782 
     46 C46        29.0519  -46.5221  -52.4841 C.3       11 UNK        -0.0868 
     47 S47        30.6330  -46.0219  -51.7292 S.3       11 UNK        -0.2515 
     48 C48        30.5492  -44.2020  -51.8320 C.3       11 UNK         0.0199 
     49 N          30.0284  -48.5893  -53.5288 N.am      5 UNK        -0.4607 
     50 C          30.3662  -49.4995  -54.4537 C.2       4 UNK         0.5031 
     51 O          29.9666  -49.4572  -55.6200 O.2       4 UNK        -0.5119 
     52 CA         31.2654  -50.6675  -53.9983 C.3       4 UNK         0.0263 
     53 CB         31.8304  -51.4746  -55.1814 C.3       4 UNK        -0.1967 
     54 N          32.3925  -50.2364  -53.1718 N.am      4 UNK        -0.4237 
     55 C          32.3678  -50.0570  -51.8451 C.2       3 UNK         0.4908 
     56 O          31.3432  -50.1343  -51.1669 O.2       3 UNK        -0.5102 
     57 CA         33.7066  -49.7360  -51.1656 C.3       3 UNK         0.0241 
     58 CB         34.5920  -50.9913  -51.0874 C.3       3 UNK        -0.1971 
     59 N          34.4110  -48.6879  -51.9015 N.am      3 UNK        -0.4139 
     60 C          34.4630  -47.4024  -51.5285 C.2       2 UNK         0.5016 
     61 O          34.0593  -46.9856  -50.4420 O.2       2 UNK        -0.5319 
     62 CA         35.0676  -46.3971  -52.5294 C.3       2 UNK         0.0286 
     63 CB         36.5112  -46.0468  -52.1336 C.3       2 UNK        -0.1963 
     64 N          35.0520  -46.8332  -53.9311 N.am      2 UNK        -0.4790 
     65 C          33.9524  -47.1332  -54.6400 C.2       1 UNK         0.5024 
     66 O          32.8146  -47.1021  -54.1814 O.2       1 UNK        -0.4888 
     67 H67        37.2950  -50.0365  -56.7452 H         1 UNK         0.0892 
     68 H68        37.4279  -50.5349  -55.0568 H         1 UNK         0.0892 
     69 H69        36.4413  -51.4742  -56.1797 H         1 UNK         0.0892 
     70 H70        35.9353  -48.2962  -57.0003 H         1 UNK         0.3107 
     71 H71        33.2726  -48.1663  -56.3742 H         1 UNK         0.0773 
     72 H72        34.5032  -46.7543  -58.0683 H         1 UNK         0.0680 
     73 H73        35.1282  -45.7525  -56.7932 H         1 UNK         0.0680 
     74 H74        33.4776  -43.1303  -56.8072 H         1 UNK         0.0650 
     75 H75        33.9940  -44.1697  -55.5044 H         1 UNK         0.0650 
     76 H76        32.5150  -44.7233  -53.6348 H         1 UNK         0.1397 
     77 H77        28.9367  -42.4335  -53.1493 H         1 UNK         0.1363 
     78 H78        31.1780  -42.1757  -56.8030 H         1 UNK         0.1355 
     79 H79        28.0624  -41.1076  -54.9204 H         1 UNK         0.0707 
     80 H80        29.4526  -40.1526  -55.3172 H         1 UNK         0.0707 
     81 H81        26.5438  -42.1040  -58.1752 H         1 UNK         0.1034 
     82 H82        27.8566  -43.2278  -58.2032 H         1 UNK         0.1034 
     83 H83        27.5472  -43.4331  -55.6149 H         1 UNK         0.0482 
     84 H84        24.8836  -44.1454  -54.6848 H         1 UNK         0.3460 
     85 H85        24.0943  -42.6421  -54.2749 H         1 UNK         0.3460 
     86 H86        26.8020  -45.3947  -56.2422 H         1 UNK         0.2989 
     87 H87        24.6527  -46.8274  -56.9987 H         1 UNK         0.0559 
     88 H88        24.6160  -46.2567  -60.0110 H         1 UNK         0.0848 
     89 H89        23.2302  -46.2383  -58.9310 H         1 UNK         0.0848 
     90 H90        24.0667  -47.7492  -59.2491 H         1 UNK         0.0848 
     91 H91        26.5894  -47.8182  -57.2944 H         1 UNK         0.3144 
     92 H92        28.9482  -48.1398  -59.7923 H         1 UNK         0.0727 
     93 H93        29.4990  -46.7568  -57.1057 H         1 UNK         0.0790 
     94 H94        30.0106  -46.1731  -58.6819 H         1 UNK         0.0790 
     95 H95        30.6740  -47.6709  -58.0472 H         1 UNK         0.0790 
     96 H96        28.8145  -49.1407  -57.1046 H         1 UNK         0.3215 
     97 H97        26.3540  -51.6715  -57.6916 H         1 UNK         0.0863 
     98 H98        28.2167  -52.9428  -56.5226 H         1 UNK         0.0808 
     99 H99        29.3619  -51.7508  -57.1469 H         1 UNK         0.0808 
    100 H100       28.4604  -52.7670  -58.2540 H         1 UNK         0.0808 
    101 H101       27.8267  -50.5954  -55.4120 H         1 UNK         0.3118 
    102 H102       25.2296  -48.4124  -54.3610 H         1 UNK         0.0546 
    103 H103       25.9994  -51.1338  -53.1735 H         1 UNK         0.0828 
    104 H104       24.3681  -50.6164  -53.5736 H         1 UNK         0.0828 
    105 H105       25.2535  -49.7942  -52.3011 H         1 UNK         0.0828 
    106 H106       27.6898  -49.3202  -53.1620 H         1 UNK         0.3005 
    107 H107       29.7638  -46.7811  -54.5050 H         1 UNK         0.1257 
    108 H108       28.4871  -47.0717  -51.7285 H         1 UNK         0.0775 
    109 H109       28.4671  -45.6265  -52.7046 H         1 UNK         0.0775 
    110 H110       29.6179  -43.8623  -51.3761 H         1 UNK         0.0840 
    111 H111       31.3539  -43.7858  -51.2245 H         1 UNK         0.0840 
    112 H112       30.4149  -48.6932  -52.5991 H         1 UNK         0.2987 
    113 H113       30.6384  -51.3405  -53.4098 H         1 UNK         0.0785 
    114 H114       31.0369  -51.9868  -55.7211 H         1 UNK         0.0798 
    115 H115       32.5276  -52.2418  -54.8439 H         1 UNK         0.0798 
    116 H116       32.3575  -50.8350  -55.8909 H         1 UNK         0.0798 
    117 H117       33.2777  -50.1256  -53.6644 H         1 UNK         0.3079 
    118 H118       33.4932  -49.4109  -50.1450 H         1 UNK         0.0794 
    119 H119       34.0830  -51.7951  -50.5538 H         1 UNK         0.0786 
    120 H120       35.5201  -50.7853  -50.5540 H         1 UNK         0.0786 
    121 H121       34.8535  -51.3692  -52.0768 H         1 UNK         0.0786 
    122 H122       34.7462  -48.9335  -52.8268 H         1 UNK         0.3032 
    123 H123       34.4648  -45.4892  -52.4617 H         1 UNK         0.1094 
    124 H124       36.9171  -45.2569  -52.7659 H         1 UNK         0.0794 
    125 H125       36.5581  -45.6893  -51.1038 H         1 UNK         0.0794 
    126 H126       37.1709  -46.9122  -52.2080 H         1 UNK         0.0794 
    127 H127       35.9486  -46.9158  -54.3887 H         1 UNK         0.3016 
@<TRIPOS>BOND
     1    1    2 1    
     2    1   67 1    
     3    1   68 1    
     4    1   69 1    
     5    2    3 2    
     6    2    4 am   BACKBONE|DICT|INTERRES
     7    4    5 1    
     8    4   70 1    
     9    5    6 1    
    10    5   65 1    
    11    5   71 1    
    12    6    7 1    
    13    6   72 1    
    14    6   73 1    
    15    7    8 1    
    16    8    9 1    
    17    8   74 1    
    18    8   75 1    
    19    9   10 ar   
    20    9   14 ar   
    21   10   11 ar   
    22   10   76 1    
    23   11   12 ar   
    24   11   48 1    
    25   12   13 ar   
    26   12   77 1    
    27   13   14 ar   
    28   13   15 1    
    29   14   78 1    
    30   15   16 1    
    31   15   79 1    
    32   15   80 1    
    33   16   17 1    
    34   17   18 1    
    35   17   81 1    
    36   17   82 1    
    37   18   19 1    
    38   18   22 1    
    39   18   83 1    
    40   19   20 am   BACKBONE|DICT|INTERRES
    41   19   21 2    
    42   20   84 1    
    43   20   85 1    
    44   22   23 am   BACKBONE|DICT|INTERRES
    45   22   86 1    
    46   23   24 2    
    47   23   25 1    
    48   25   26 1    
    49   25   27 1    
    50   25   87 1    
    51   26   88 1    
    52   26   89 1    
    53   26   90 1    
    54   27   28 am   BACKBONE|DICT|INTERRES
    55   27   91 1    
    56   28   29 2    
    57   28   30 1    
    58   30   31 1    
    59   30   32 1    
    60   30   92 1    
    61   31   93 1    
    62   31   94 1    
    63   31   95 1    
    64   32   33 am   BACKBONE|DICT|INTERRES
    65   32   96 1    
    66   33   34 2    
    67   33   35 1    
    68   35   36 1    
    69   35   37 1    
    70   35   97 1    
    71   36   98 1    
    72   36   99 1    
    73   36  100 1    
    74   37   38 am   BACKBONE|DICT|INTERRES
    75   37  101 1    
    76   38   39 2    
    77   38   40 1    
    78   40   41 1    
    79   40   42 1    
    80   40  102 1    
    81   41  103 1    
    82   41  104 1    
    83   41  105 1    
    84   42   43 am   BACKBONE|DICT|INTERRES
    85   42  106 1    
    86   43   44 2    
    87   43   45 1    
    88   45   46 1    
    89   45   49 1    
    90   45  107 1    
    91   46   47 1    
    92   46  108 1    
    93   46  109 1    
    94   47   48 1    
    95   48  110 1    
    96   48  111 1    
    97   49   50 am   BACKBONE|DICT|INTERRES
    98   49  112 1    
    99   50   51 2    
   100   50   52 1    
   101   52   53 1    
   102   52   54 1    
   103   52  113 1    
   104   53  114 1    
   105   53  115 1    
   106   53  116 1    
   107   54   55 am   BACKBONE|DICT|INTERRES
   108   54  117 1    
   109   55   56 2    
   110   55   57 1    
   111   57   58 1    
   112   57   59 1    
   113   57  118 1    
   114   58  119 1    
   115   58  120 1    
   116   58  121 1    
   117   59   60 am   BACKBONE|DICT|INTERRES
   118   59  122 1    
   119   60   61 2    
   120   60   62 1    
   121   62   63 1    
   122   62   64 1    
   123   62  123 1    
   124   63  124 1    
   125   63  125 1    
   126   63  126 1    
   127   64   65 am   BACKBONE|DICT|INTERRES
   128   64  127 1    
   129   65   66 2    
@<TRIPOS>SUBSTRUCTURE
     1 UNK         1 GROUP             0       ****    0 ROOT    
