@<TRIPOS>MOLECULE
3R134
127   129    1
SMALL
USER_CHARGES


@<TRIPOS>ATOM
      1 CA         37.7493  -46.4683  -53.3461 C.3       0 UNK        -0.1968 
      2 C          36.2629  -46.3281  -53.6390 C.2       0 UNK         0.4852 
      3 O          35.7451  -47.0404  -54.5001 O.2       0 UNK        -0.5359 
      4 N          35.5823  -45.4174  -52.9266 N.am      1 UNK        -0.4300 
      5 CA         34.1486  -45.1213  -53.0416 C.3       1 UNK         0.0863 
      6 C6         33.7146  -43.9972  -52.0634 C.3       11 UNK        -0.0953 
      7 S7         34.2908  -42.3563  -52.6096 S.3       11 UNK        -0.2369 
      8 C8         32.7131  -41.5030  -52.9619 C.3       11 UNK         0.0226 
      9 C9         31.8273  -42.2771  -53.9317 C.ar      11 UNK        -0.0699 
     10 C10        30.5356  -42.6638  -53.5589 C.ar      11 UNK        -0.0804 
     11 C11        29.7420  -43.4174  -54.4288 C.ar      11 UNK        -0.0871 
     12 C12        30.2595  -43.7941  -55.6737 C.ar      11 UNK        -0.1008 
     13 C13        31.5305  -43.3694  -56.0845 C.ar      11 UNK        -0.0735 
     14 C14        32.3034  -42.6113  -55.2018 C.ar      11 UNK        -0.0945 
     15 C15        32.1346  -43.7053  -57.4504 C.3       11 UNK         0.0169 
     16 S16        31.0062  -44.4225  -58.6943 S.3       11 UNK        -0.2669 
     17 C17        29.9346  -43.0143  -59.1582 C.3       11 UNK        -0.0850 
     18 CA         28.4359  -43.2206  -58.7910 C.3       10 UNK         0.0855 
     19 C          27.5561  -42.0280  -59.2628 C.2       10 UNK         0.5543 
     20 N          26.3936  -42.2578  -59.8616 N.am      10 UNK        -0.7343 
     21 O          27.9251  -40.8719  -59.0715 O.2       10 UNK        -0.5027 
     22 N          27.9332  -44.5329  -59.2426 N.am      10 UNK        -0.4495 
     23 C          27.5389  -45.5214  -58.4327 C.2       10 UNK         0.4903 
     24 O          27.4722  -45.4218  -57.2053 O.2       10 UNK        -0.4860 
     25 CA         27.1843  -46.8533  -59.1158 C.3       9 UNK         0.0227 
     26 CB         28.4361  -47.5243  -59.7072 C.3       9 UNK        -0.1964 
     27 N          26.5801  -47.7617  -58.1423 N.am      9 UNK        -0.4231 
     28 C          25.2666  -47.8385  -57.8922 C.2       9 UNK         0.5014 
     29 O          24.4104  -47.2725  -58.5758 O.2       9 UNK        -0.5270 
     30 CA         24.8321  -48.6435  -56.6516 C.3       8 UNK         0.0284 
     31 CB         23.4077  -49.2270  -56.7764 C.3       8 UNK        -0.1977 
     32 N          25.7967  -49.6686  -56.2384 N.am      8 UNK        -0.4342 
     33 C          26.1415  -50.7904  -56.8917 C.2       8 UNK         0.5039 
     34 O          25.6613  -51.1254  -57.9754 O.2       8 UNK        -0.5547 
     35 CA         27.2037  -51.6998  -56.2385 C.3       7 UNK         0.0281 
     36 CB         28.3909  -51.9413  -57.1880 C.3       7 UNK        -0.1963 
     37 N          27.7069  -51.1658  -54.9701 N.am      7 UNK        -0.4444 
     38 C          27.1139  -51.3276  -53.7792 C.2       7 UNK         0.5104 
     39 O          26.1178  -52.0287  -53.6016 O.2       7 UNK        -0.5100 
     40 CA         27.7081  -50.5506  -52.5899 C.3       6 UNK         0.0396 
     41 CB         28.6093  -51.4717  -51.7536 C.3       6 UNK        -0.1801 
     42 N          28.4554  -49.3494  -52.9877 N.am      6 UNK        -0.4747 
     43 C          27.8943  -48.2531  -53.5259 C.2       6 UNK         0.5012 
     44 O          26.6838  -48.1464  -53.7251 O.2       6 UNK        -0.5003 
     45 CA         28.8393  -47.1305  -54.0018 C.3       5 UNK         0.0782 
     46 C46        29.2787  -46.1843  -52.8553 C.3       11 UNK        -0.0868 
     47 S47        28.1380  -44.8003  -52.5484 S.3       11 UNK        -0.2515 
     48 C48        28.3058  -43.7796  -54.0561 C.3       11 UNK         0.0199 
     49 N          29.9998  -47.6514  -54.7226 N.am      5 UNK        -0.4607 
     50 C          29.9528  -48.3148  -55.8835 C.2       4 UNK         0.5031 
     51 O          28.9053  -48.6071  -56.4607 O.2       4 UNK        -0.5119 
     52 CA         31.2994  -48.7412  -56.4844 C.3       4 UNK         0.0263 
     53 CB         31.9478  -47.5766  -57.2444 C.3       4 UNK        -0.1967 
     54 N          32.2213  -49.2013  -55.4467 N.am      4 UNK        -0.4237 
     55 C          32.2919  -50.4644  -55.0083 C.2       3 UNK         0.4908 
     56 O          31.6205  -51.3895  -55.4658 O.2       3 UNK        -0.5102 
     57 CA         33.2708  -50.7446  -53.8540 C.3       3 UNK         0.0241 
     58 CB         34.6792  -51.0328  -54.3985 C.3       3 UNK        -0.1971 
     59 N          33.3441  -49.6622  -52.8685 N.am      3 UNK        -0.4139 
     60 C          32.3176  -49.2545  -52.1101 C.2       2 UNK         0.5016 
     61 O          31.1858  -49.7304  -52.1698 O.2       2 UNK        -0.5319 
     62 CA         32.5794  -48.0858  -51.1486 C.3       2 UNK         0.0286 
     63 CB         33.1506  -48.6033  -49.8191 C.3       2 UNK        -0.1963 
     64 N          33.4469  -47.0246  -51.6726 N.am      2 UNK        -0.4790 
     65 C          33.2715  -46.3671  -52.8293 C.2       1 UNK         0.5024 
     66 O          32.4681  -46.6999  -53.7006 O.2       1 UNK        -0.4888 
     67 H67        38.0787  -45.7847  -52.5637 H         1 UNK         0.0892 
     68 H68        37.9737  -47.4850  -53.0246 H         1 UNK         0.0892 
     69 H69        38.3292  -46.2593  -54.2447 H         1 UNK         0.0892 
     70 H70        36.0817  -44.8550  -52.2524 H         1 UNK         0.3107 
     71 H71        33.9666  -44.7856  -54.0649 H         1 UNK         0.0773 
     72 H72        34.1045  -44.1827  -51.0610 H         1 UNK         0.0680 
     73 H73        32.6291  -43.9676  -51.9501 H         1 UNK         0.0680 
     74 H74        32.1937  -41.3284  -52.0183 H         1 UNK         0.0650 
     75 H75        32.9286  -40.5201  -53.3825 H         1 UNK         0.0650 
     76 H76        30.1453  -42.3846  -52.5896 H         1 UNK         0.1397 
     77 H77        29.6572  -44.4051  -56.3280 H         1 UNK         0.1363 
     78 H78        33.2956  -42.2957  -55.4948 H         1 UNK         0.1355 
     79 H79        32.5893  -42.8099  -57.8770 H         1 UNK         0.0707 
     80 H80        32.9488  -44.4137  -57.2921 H         1 UNK         0.0707 
     81 H81        30.0400  -42.8609  -60.2336 H         1 UNK         0.1034 
     82 H82        30.3154  -42.1057  -58.6878 H         1 UNK         0.1034 
     83 H83        28.3651  -43.1661  -57.7050 H         1 UNK         0.0482 
     84 H84        25.8282  -41.4781  -60.1593 H         1 UNK         0.3460 
     85 H85        26.0647  -43.2005  -59.9961 H         1 UNK         0.3460 
     86 H86        27.9522  -44.6890  -60.2400 H         1 UNK         0.2989 
     87 H87        26.4829  -46.6510  -59.9277 H         1 UNK         0.0559 
     88 H88        29.1919  -47.7088  -58.9454 H         1 UNK         0.0848 
     89 H89        28.8965  -46.9024  -60.4756 H         1 UNK         0.0848 
     90 H90        28.1908  -48.4803  -60.1700 H         1 UNK         0.0848 
     91 H91        27.2272  -48.1945  -57.4889 H         1 UNK         0.3144 
     92 H92        24.8115  -47.9212  -55.8341 H         1 UNK         0.0727 
     93 H93        23.3179  -49.8997  -57.6297 H         1 UNK         0.0790 
     94 H94        22.6707  -48.4345  -56.9113 H         1 UNK         0.0790 
     95 H95        23.1253  -49.7799  -55.8805 H         1 UNK         0.0790 
     96 H96        26.2706  -49.4681  -55.3649 H         1 UNK         0.3215 
     97 H97        26.7257  -52.6636  -56.0507 H         1 UNK         0.0863 
     98 H98        28.8766  -51.0105  -57.4796 H         1 UNK         0.0808 
     99 H99        28.0635  -52.4346  -58.1040 H         1 UNK         0.0808 
    100 H100       29.1445  -52.5812  -56.7285 H         1 UNK         0.0808 
    101 H101       28.5084  -50.5521  -55.0276 H         1 UNK         0.3118 
    102 H102       26.8758  -50.2311  -51.9593 H         1 UNK         0.0546 
    103 H103       28.9944  -50.9580  -50.8727 H         1 UNK         0.0828 
    104 H104       29.4616  -51.8330  -52.3306 H         1 UNK         0.0828 
    105 H105       28.0585  -52.3458  -51.4036 H         1 UNK         0.0828 
    106 H106       29.4637  -49.3793  -52.8423 H         1 UNK         0.3005 
    107 H107       28.2785  -46.5525  -54.7390 H         1 UNK         0.1257 
    108 H108       30.2411  -45.7278  -53.0795 H         1 UNK         0.0775 
    109 H109       29.4337  -46.7310  -51.9234 H         1 UNK         0.0775 
    110 H110       27.8082  -44.2864  -54.8823 H         1 UNK         0.0840 
    111 H111       27.7470  -42.8552  -53.9051 H         1 UNK         0.0840 
    112 H112       30.9094  -47.4174  -54.3320 H         1 UNK         0.2987 
    113 H113       31.1134  -49.5490  -57.1956 H         1 UNK         0.0785 
    114 H114       32.9115  -47.8627  -57.6655 H         1 UNK         0.0798 
    115 H115       31.3172  -47.2582  -58.0733 H         1 UNK         0.0798 
    116 H116       32.1071  -46.7105  -56.6002 H         1 UNK         0.0798 
    117 H117       32.7704  -48.4914  -54.9770 H         1 UNK         0.3079 
    118 H118       32.9148  -51.6375  -53.3356 H         1 UNK         0.0794 
    119 H119       35.3588  -51.3351  -53.6015 H         1 UNK         0.0786 
    120 H120       35.1077  -50.1592  -54.8923 H         1 UNK         0.0786 
    121 H121       34.6575  -51.8432  -55.1286 H         1 UNK         0.0786 
    122 H122       34.2275  -49.1817  -52.7750 H         1 UNK         0.3032 
    123 H123       31.6099  -47.6280  -50.9417 H         1 UNK         0.1094 
    124 H124       34.1478  -49.0268  -49.9445 H         1 UNK         0.0794 
    125 H125       33.2137  -47.8077  -49.0765 H         1 UNK         0.0794 
    126 H126       32.5152  -49.3844  -49.3984 H         1 UNK         0.0794 
    127 H127       34.1642  -46.6874  -51.0466 H         1 UNK         0.3016 
@<TRIPOS>BOND
     1    1    2 1    
     2    1   67 1    
     3    1   68 1    
     4    1   69 1    
     5    2    3 2    
     6    2    4 am   BACKBONE|DICT|INTERRES
     7    4    5 1    
     8    4   70 1    
     9    5    6 1    
    10    5   65 1    
    11    5   71 1    
    12    6    7 1    
    13    6   72 1    
    14    6   73 1    
    15    7    8 1    
    16    8    9 1    
    17    8   74 1    
    18    8   75 1    
    19    9   10 ar   
    20    9   14 ar   
    21   10   11 ar   
    22   10   76 1    
    23   11   12 ar   
    24   11   48 1    
    25   12   13 ar   
    26   12   77 1    
    27   13   14 ar   
    28   13   15 1    
    29   14   78 1    
    30   15   16 1    
    31   15   79 1    
    32   15   80 1    
    33   16   17 1    
    34   17   18 1    
    35   17   81 1    
    36   17   82 1    
    37   18   19 1    
    38   18   22 1    
    39   18   83 1    
    40   19   20 am   BACKBONE|DICT|INTERRES
    41   19   21 2    
    42   20   84 1    
    43   20   85 1    
    44   22   23 am   BACKBONE|DICT|INTERRES
    45   22   86 1    
    46   23   24 2    
    47   23   25 1    
    48   25   26 1    
    49   25   27 1    
    50   25   87 1    
    51   26   88 1    
    52   26   89 1    
    53   26   90 1    
    54   27   28 am   BACKBONE|DICT|INTERRES
    55   27   91 1    
    56   28   29 2    
    57   28   30 1    
    58   30   31 1    
    59   30   32 1    
    60   30   92 1    
    61   31   93 1    
    62   31   94 1    
    63   31   95 1    
    64   32   33 am   BACKBONE|DICT|INTERRES
    65   32   96 1    
    66   33   34 2    
    67   33   35 1    
    68   35   36 1    
    69   35   37 1    
    70   35   97 1    
    71   36   98 1    
    72   36   99 1    
    73   36  100 1    
    74   37   38 am   BACKBONE|DICT|INTERRES
    75   37  101 1    
    76   38   39 2    
    77   38   40 1    
    78   40   41 1    
    79   40   42 1    
    80   40  102 1    
    81   41  103 1    
    82   41  104 1    
    83   41  105 1    
    84   42   43 am   BACKBONE|DICT|INTERRES
    85   42  106 1    
    86   43   44 2    
    87   43   45 1    
    88   45   46 1    
    89   45   49 1    
    90   45  107 1    
    91   46   47 1    
    92   46  108 1    
    93   46  109 1    
    94   47   48 1    
    95   48  110 1    
    96   48  111 1    
    97   49   50 am   BACKBONE|DICT|INTERRES
    98   49  112 1    
    99   50   51 2    
   100   50   52 1    
   101   52   53 1    
   102   52   54 1    
   103   52  113 1    
   104   53  114 1    
   105   53  115 1    
   106   53  116 1    
   107   54   55 am   BACKBONE|DICT|INTERRES
   108   54  117 1    
   109   55   56 2    
   110   55   57 1    
   111   57   58 1    
   112   57   59 1    
   113   57  118 1    
   114   58  119 1    
   115   58  120 1    
   116   58  121 1    
   117   59   60 am   BACKBONE|DICT|INTERRES
   118   59  122 1    
   119   60   61 2    
   120   60   62 1    
   121   62   63 1    
   122   62   64 1    
   123   62  123 1    
   124   63  124 1    
   125   63  125 1    
   126   63  126 1    
   127   64   65 am   BACKBONE|DICT|INTERRES
   128   64  127 1    
   129   65   66 2    
@<TRIPOS>SUBSTRUCTURE
     1 UNK         1 GROUP             0       ****    0 ROOT    
