@<TRIPOS>MOLECULE
3R134
127   129    1
SMALL
USER_CHARGES


@<TRIPOS>ATOM
      1 CA         33.6535  -46.2351  -51.8030 C.3       0 UNK        -0.1968 
      2 C          33.5385  -46.2576  -53.3192 C.2       0 UNK         0.4852 
      3 O          32.5271  -46.7279  -53.8385 O.2       0 UNK        -0.5359 
      4 N          34.5686  -45.7622  -54.0251 N.am      1 UNK        -0.4300 
      5 CA         34.7043  -45.6501  -55.4890 C.3       1 UNK         0.0863 
      6 C6         33.6033  -44.7826  -56.1600 C.3       11 UNK        -0.0953 
      7 S7         33.9104  -42.9924  -56.0017 S.3       11 UNK        -0.2369 
      8 C8         33.3140  -42.6064  -54.3185 C.3       11 UNK         0.0226 
      9 C9         31.8391  -42.8981  -54.0403 C.ar      11 UNK        -0.0699 
     10 C10        31.4445  -43.1321  -52.7184 C.ar      11 UNK        -0.0804 
     11 C11        30.1025  -43.3557  -52.3996 C.ar      11 UNK        -0.0871 
     12 C12        29.1458  -43.3433  -53.4163 C.ar      11 UNK        -0.1008 
     13 C13        29.5232  -43.1292  -54.7429 C.ar      11 UNK        -0.0735 
     14 C14        30.8673  -42.8988  -55.0501 C.ar      11 UNK        -0.0945 
     15 C15        28.4719  -43.1544  -55.8377 C.3       11 UNK         0.0169 
     16 S16        28.0831  -41.4782  -56.4215 S.3       11 UNK        -0.2669 
     17 C17        26.3972  -41.6726  -57.1081 C.3       11 UNK        -0.0850 
     18 CA         26.2163  -42.6569  -58.2987 C.3       10 UNK         0.0855 
     19 C          27.1809  -42.3778  -59.4864 C.2       10 UNK         0.5543 
     20 N          26.9019  -41.3498  -60.2768 N.am      10 UNK        -0.7343 
     21 O          28.1875  -43.0559  -59.6805 O.2       10 UNK        -0.5027 
     22 N          26.2180  -44.0554  -57.8469 N.am      10 UNK        -0.4495 
     23 C          25.7021  -45.0830  -58.5290 C.2       10 UNK         0.4903 
     24 O          25.1351  -44.9688  -59.6176 O.2       10 UNK        -0.4860 
     25 CA         25.8135  -46.4616  -57.8483 C.3       9 UNK         0.0227 
     26 CB         25.2267  -47.6016  -58.7082 C.3       9 UNK        -0.1964 
     27 N          27.1757  -46.7999  -57.4166 N.am      9 UNK        -0.4231 
     28 C          28.2686  -46.9079  -58.1907 C.2       9 UNK         0.5014 
     29 O          28.3144  -46.6057  -59.3834 O.2       9 UNK        -0.5270 
     30 CA         29.5099  -47.5348  -57.5315 C.3       8 UNK         0.0284 
     31 CB         30.2513  -46.5212  -56.6457 C.3       8 UNK        -0.1977 
     32 N          29.1728  -48.7291  -56.7513 N.am      8 UNK        -0.4342 
     33 C          28.6870  -49.8694  -57.2684 C.2       8 UNK         0.5039 
     34 O          28.5684  -50.0832  -58.4752 O.2       8 UNK        -0.5547 
     35 CA         28.2323  -50.9483  -56.2727 C.3       7 UNK         0.0281 
     36 CB         29.3983  -51.8726  -55.8813 C.3       7 UNK        -0.1963 
     37 N          27.6369  -50.3490  -55.0760 N.am      7 UNK        -0.4444 
     38 C          26.3691  -49.9169  -55.0060 C.2       7 UNK         0.5104 
     39 O          25.5436  -50.0724  -55.9055 O.2       7 UNK        -0.5100 
     40 CA         25.9376  -49.1845  -53.7218 C.3       6 UNK         0.0396 
     41 CB         25.2316  -50.1577  -52.7645 C.3       6 UNK        -0.1801 
     42 N          27.0434  -48.5340  -53.0152 N.am      6 UNK        -0.4747 
     43 C          27.7020  -47.4479  -53.4475 C.2       6 UNK         0.5012 
     44 O          27.4318  -46.8558  -54.4940 O.2       6 UNK        -0.5003 
     45 CA         28.8986  -46.9894  -52.5842 C.3       5 UNK         0.0782 
     46 C46        28.4089  -46.0770  -51.4330 C.3       11 UNK        -0.0868 
     47 S47        29.7930  -45.3470  -50.4921 S.3       11 UNK        -0.2515 
     48 C48        29.6844  -43.5896  -50.9555 C.3       11 UNK         0.0199 
     49 N          29.6830  -48.1197  -52.0657 N.am      5 UNK        -0.4607 
     50 C          30.2501  -49.0784  -52.8052 C.2       4 UNK         0.5031 
     51 O          30.1635  -49.1428  -54.0353 O.2       4 UNK        -0.5119 
     52 CA         30.9590  -50.1977  -52.0372 C.3       4 UNK         0.0263 
     53 CB         29.9294  -51.1761  -51.4376 C.3       4 UNK        -0.1967 
     54 N          31.8276  -50.8912  -52.9776 N.am      4 UNK        -0.4237 
     55 C          32.8147  -51.7467  -52.6903 C.2       3 UNK         0.4908 
     56 O          33.1055  -52.1045  -51.5483 O.2       3 UNK        -0.5102 
     57 CA         33.6212  -52.2973  -53.8835 C.3       3 UNK         0.0241 
     58 CB         33.0830  -53.6759  -54.3010 C.3       3 UNK        -0.1971 
     59 N          33.6150  -51.4056  -55.0495 N.am      3 UNK        -0.4139 
     60 C          34.1968  -50.1984  -55.0850 C.2       2 UNK         0.5016 
     61 O          34.8908  -49.7567  -54.1653 O.2       2 UNK        -0.5319 
     62 CA         33.9511  -49.3368  -56.3374 C.3       2 UNK         0.0286 
     63 CB         32.6287  -49.6665  -57.0581 C.3       2 UNK        -0.1963 
     64 N          33.9178  -47.9345  -55.9317 N.am      2 UNK        -0.4790 
     65 C          34.8557  -47.0195  -56.1865 C.2       1 UNK         0.5024 
     66 O          35.8227  -47.2184  -56.9239 O.2       1 UNK        -0.4888 
     67 H67        32.7975  -45.7158  -51.3732 H         1 UNK         0.0892 
     68 H68        33.6629  -47.2535  -51.4156 H         1 UNK         0.0892 
     69 H69        34.5601  -45.7322  -51.4675 H         1 UNK         0.0892 
     70 H70        35.3778  -45.4367  -53.5150 H         1 UNK         0.3107 
     71 H71        35.6596  -45.1464  -55.6474 H         1 UNK         0.0773 
     72 H72        33.5568  -44.9802  -57.2328 H         1 UNK         0.0680 
     73 H73        32.6117  -45.0224  -55.7793 H         1 UNK         0.0680 
     74 H74        33.4842  -41.5442  -54.1399 H         1 UNK         0.0650 
     75 H75        33.9419  -43.1349  -53.6014 H         1 UNK         0.0650 
     76 H76        32.1842  -43.1301  -51.9294 H         1 UNK         0.1397 
     77 H77        28.1035  -43.5011  -53.1779 H         1 UNK         0.1363 
     78 H78        31.1460  -42.7122  -56.0775 H         1 UNK         0.1355 
     79 H79        28.8279  -43.7552  -56.6761 H         1 UNK         0.0707 
     80 H80        27.5663  -43.6339  -55.4639 H         1 UNK         0.0707 
     81 H81        25.7214  -41.9437  -56.2953 H         1 UNK         0.1034 
     82 H82        26.0708  -40.6791  -57.4203 H         1 UNK         0.1034 
     83 H83        25.2096  -42.4788  -58.6837 H         1 UNK         0.0482 
     84 H84        26.0847  -40.7793  -60.1253 H         1 UNK         0.3460 
     85 H85        27.5207  -41.1424  -61.0451 H         1 UNK         0.3460 
     86 H86        26.6957  -44.2468  -56.9812 H         1 UNK         0.2989 
     87 H87        25.2161  -46.4020  -56.9373 H         1 UNK         0.0559 
     88 H88        24.1771  -47.4175  -58.9403 H         1 UNK         0.0848 
     89 H89        25.2797  -48.5582  -58.1885 H         1 UNK         0.0848 
     90 H90        25.7564  -47.7077  -59.6555 H         1 UNK         0.0848 
     91 H91        27.2788  -47.0129  -56.4270 H         1 UNK         0.3144 
     92 H92        30.1889  -47.8437  -58.3289 H         1 UNK         0.0727 
     93 H93        29.6343  -46.1623  -55.8225 H         1 UNK         0.0790 
     94 H94        30.5604  -45.6506  -57.2253 H         1 UNK         0.0790 
     95 H95        31.1502  -46.9611  -56.2152 H         1 UNK         0.0790 
     96 H96        29.3185  -48.6800  -55.7473 H         1 UNK         0.3215 
     97 H97        27.4777  -51.5616  -56.7709 H         1 UNK         0.0863 
     98 H98        29.0753  -52.6456  -55.1838 H         1 UNK         0.0808 
     99 H99        30.2193  -51.3275  -55.4201 H         1 UNK         0.0808 
    100 H100       29.8010  -52.3776  -56.7602 H         1 UNK         0.0808 
    101 H101       28.2679  -50.1299  -54.3168 H         1 UNK         0.3118 
    102 H102       25.2217  -48.4121  -54.0111 H         1 UNK         0.0546 
    103 H103       25.9010  -50.9489  -52.4244 H         1 UNK         0.0828 
    104 H104       24.3825  -50.6379  -53.2532 H         1 UNK         0.0828 
    105 H105       24.8458  -49.6412  -51.8854 H         1 UNK         0.0828 
    106 H106       27.3386  -48.9553  -52.1462 H         1 UNK         0.3005 
    107 H107       29.5591  -46.4098  -53.2349 H         1 UNK         0.1257 
    108 H108       27.7938  -46.6453  -50.7326 H         1 UNK         0.0775 
    109 H109       27.7628  -45.2828  -51.8078 H         1 UNK         0.0775 
    110 H110       28.6704  -43.2249  -50.7839 H         1 UNK         0.0840 
    111 H111       30.3268  -43.0120  -50.2891 H         1 UNK         0.0840 
    112 H112       29.8113  -48.1353  -51.0644 H         1 UNK         0.2987 
    113 H113       31.5690  -49.7553  -51.2470 H         1 UNK         0.0785 
    114 H114       29.2557  -50.6683  -50.7465 H         1 UNK         0.0798 
    115 H115       30.4159  -51.9743  -50.8769 H         1 UNK         0.0798 
    116 H116       29.3171  -51.6403  -52.2120 H         1 UNK         0.0798 
    117 H117       31.6785  -50.6067  -53.9371 H         1 UNK         0.3079 
    118 H118       34.6555  -52.4164  -53.5535 H         1 UNK         0.0794 
    119 H119       33.6872  -54.1151  -55.0951 H         1 UNK         0.0786 
    120 H120       32.0522  -53.6185  -54.6536 H         1 UNK         0.0786 
    121 H121       33.1009  -54.3718  -53.4609 H         1 UNK         0.0786 
    122 H122       33.0870  -51.7117  -55.8537 H         1 UNK         0.3032 
    123 H123       34.7799  -49.5201  -57.0247 H         1 UNK         0.1094 
    124 H124       31.7779  -49.5999  -56.3804 H         1 UNK         0.0794 
    125 H125       32.4482  -48.9729  -57.8795 H         1 UNK         0.0794 
    126 H126       32.6397  -50.6673  -57.4908 H         1 UNK         0.0794 
    127 H127       33.2179  -47.6785  -55.2352 H         1 UNK         0.3016 
@<TRIPOS>BOND
     1    1    2 1    
     2    1   67 1    
     3    1   68 1    
     4    1   69 1    
     5    2    3 2    
     6    2    4 am   BACKBONE|DICT|INTERRES
     7    4    5 1    
     8    4   70 1    
     9    5    6 1    
    10    5   65 1    
    11    5   71 1    
    12    6    7 1    
    13    6   72 1    
    14    6   73 1    
    15    7    8 1    
    16    8    9 1    
    17    8   74 1    
    18    8   75 1    
    19    9   10 ar   
    20    9   14 ar   
    21   10   11 ar   
    22   10   76 1    
    23   11   12 ar   
    24   11   48 1    
    25   12   13 ar   
    26   12   77 1    
    27   13   14 ar   
    28   13   15 1    
    29   14   78 1    
    30   15   16 1    
    31   15   79 1    
    32   15   80 1    
    33   16   17 1    
    34   17   18 1    
    35   17   81 1    
    36   17   82 1    
    37   18   19 1    
    38   18   22 1    
    39   18   83 1    
    40   19   20 am   BACKBONE|DICT|INTERRES
    41   19   21 2    
    42   20   84 1    
    43   20   85 1    
    44   22   23 am   BACKBONE|DICT|INTERRES
    45   22   86 1    
    46   23   24 2    
    47   23   25 1    
    48   25   26 1    
    49   25   27 1    
    50   25   87 1    
    51   26   88 1    
    52   26   89 1    
    53   26   90 1    
    54   27   28 am   BACKBONE|DICT|INTERRES
    55   27   91 1    
    56   28   29 2    
    57   28   30 1    
    58   30   31 1    
    59   30   32 1    
    60   30   92 1    
    61   31   93 1    
    62   31   94 1    
    63   31   95 1    
    64   32   33 am   BACKBONE|DICT|INTERRES
    65   32   96 1    
    66   33   34 2    
    67   33   35 1    
    68   35   36 1    
    69   35   37 1    
    70   35   97 1    
    71   36   98 1    
    72   36   99 1    
    73   36  100 1    
    74   37   38 am   BACKBONE|DICT|INTERRES
    75   37  101 1    
    76   38   39 2    
    77   38   40 1    
    78   40   41 1    
    79   40   42 1    
    80   40  102 1    
    81   41  103 1    
    82   41  104 1    
    83   41  105 1    
    84   42   43 am   BACKBONE|DICT|INTERRES
    85   42  106 1    
    86   43   44 2    
    87   43   45 1    
    88   45   46 1    
    89   45   49 1    
    90   45  107 1    
    91   46   47 1    
    92   46  108 1    
    93   46  109 1    
    94   47   48 1    
    95   48  110 1    
    96   48  111 1    
    97   49   50 am   BACKBONE|DICT|INTERRES
    98   49  112 1    
    99   50   51 2    
   100   50   52 1    
   101   52   53 1    
   102   52   54 1    
   103   52  113 1    
   104   53  114 1    
   105   53  115 1    
   106   53  116 1    
   107   54   55 am   BACKBONE|DICT|INTERRES
   108   54  117 1    
   109   55   56 2    
   110   55   57 1    
   111   57   58 1    
   112   57   59 1    
   113   57  118 1    
   114   58  119 1    
   115   58  120 1    
   116   58  121 1    
   117   59   60 am   BACKBONE|DICT|INTERRES
   118   59  122 1    
   119   60   61 2    
   120   60   62 1    
   121   62   63 1    
   122   62   64 1    
   123   62  123 1    
   124   63  124 1    
   125   63  125 1    
   126   63  126 1    
   127   64   65 am   BACKBONE|DICT|INTERRES
   128   64  127 1    
   129   65   66 2    
@<TRIPOS>SUBSTRUCTURE
     1 UNK         1 GROUP             0       ****    0 ROOT    
