@<TRIPOS>MOLECULE
3R134
127   129    1
SMALL
USER_CHARGES


@<TRIPOS>ATOM
      1 CA         35.3974  -47.5409  -54.3132 C.3       0 UNK        -0.1968 
      2 C          34.7633  -46.7749  -53.1621 C.2       0 UNK         0.4852 
      3 O          35.2245  -46.8920  -52.0259 O.2       0 UNK        -0.5359 
      4 N          33.6963  -46.0147  -53.4451 N.am      1 UNK        -0.4300 
      5 CA         32.9259  -45.1356  -52.5458 C.3       1 UNK         0.0863 
      6 C6         33.7452  -43.9945  -51.8812 C.3       11 UNK        -0.0953 
      7 S7         34.8027  -43.0493  -53.0308 S.3       11 UNK        -0.2369 
      8 C8         33.6292  -41.8555  -53.7534 C.3       11 UNK         0.0226 
      9 C9         32.6832  -42.5073  -54.7541 C.ar      11 UNK        -0.0699 
     10 C10        33.1947  -43.2117  -55.8494 C.ar      11 UNK        -0.0804 
     11 C11        32.3360  -43.8322  -56.7597 C.ar      11 UNK        -0.0871 
     12 C12        30.9550  -43.7360  -56.5750 C.ar      11 UNK        -0.1008 
     13 C13        30.4277  -43.0159  -55.4990 C.ar      11 UNK        -0.0735 
     14 C14        31.2974  -42.4045  -54.5900 C.ar      11 UNK        -0.0945 
     15 C15        28.9214  -42.8781  -55.3320 C.3       11 UNK         0.0169 
     16 S16        28.2773  -44.0569  -54.1086 S.3       11 UNK        -0.2669 
     17 C17        26.4863  -43.7054  -54.1735 C.3       11 UNK        -0.0850 
     18 CA         25.6447  -44.9009  -54.7215 C.3       10 UNK         0.0855 
     19 C          24.1050  -44.7035  -54.5565 C.2       10 UNK         0.5543 
     20 N          23.6490  -44.1915  -53.4203 N.am      10 UNK        -0.7343 
     21 O          23.3045  -45.0518  -55.4228 O.2       10 UNK        -0.5027 
     22 N          26.0385  -45.3152  -56.0823 N.am      10 UNK        -0.4495 
     23 C          25.9413  -44.5659  -57.1896 C.2       10 UNK         0.4903 
     24 O          25.5354  -43.4029  -57.1963 O.2       10 UNK        -0.4860 
     25 CA         26.3912  -45.1837  -58.5244 C.3       9 UNK         0.0227 
     26 CB         27.7705  -44.6415  -58.9267 C.3       9 UNK        -0.1964 
     27 N          26.4494  -46.6474  -58.5321 N.am      9 UNK        -0.4231 
     28 C          25.4114  -47.4412  -58.8296 C.2       9 UNK         0.5014 
     29 O          24.2608  -47.0335  -58.9917 O.2       9 UNK        -0.5270 
     30 CA         25.7080  -48.9366  -59.0164 C.3       8 UNK         0.0284 
     31 CB         26.4319  -49.1796  -60.3522 C.3       8 UNK        -0.1977 
     32 N          26.5250  -49.4613  -57.9238 N.am      8 UNK        -0.4342 
     33 C          26.0793  -50.2735  -56.9550 C.2       8 UNK         0.5039 
     34 O          24.9300  -50.7135  -56.9002 O.2       8 UNK        -0.5547 
     35 CA         27.0795  -50.6661  -55.8501 C.3       7 UNK         0.0281 
     36 CB         27.6672  -52.0593  -56.1251 C.3       7 UNK        -0.1963 
     37 N          28.1678  -49.6974  -55.6878 N.am      7 UNK        -0.4444 
     38 C          27.9885  -48.4496  -55.2278 C.2       7 UNK         0.5104 
     39 O          26.9040  -48.0244  -54.8341 O.2       7 UNK        -0.5100 
     40 CA         29.1904  -47.4915  -55.2537 C.3       6 UNK         0.0396 
     41 CB         29.7927  -47.3535  -53.8528 C.3       6 UNK        -0.1801 
     42 N          30.2432  -47.8689  -56.1956 N.am      6 UNK        -0.4747 
     43 C          30.0969  -47.9262  -57.5273 C.2       6 UNK         0.5012 
     44 O          29.0333  -47.6912  -58.1056 O.2       6 UNK        -0.5003 
     45 CA         31.3197  -48.3894  -58.3454 C.3       5 UNK         0.0782 
     46 C46        32.1455  -47.1843  -58.8635 C.3       11 UNK        -0.0868 
     47 S47        33.1365  -46.3509  -57.5655 S.3       11 UNK        -0.2515 
     48 C48        32.8997  -44.5875  -57.9527 C.3       11 UNK         0.0199 
     49 N          32.1647  -49.3606  -57.6402 N.am      5 UNK        -0.4607 
     50 C          31.7643  -50.5198  -57.1028 C.2       4 UNK         0.5031 
     51 O          30.6062  -50.9349  -57.1551 O.2       4 UNK        -0.5119 
     52 CA         32.8153  -51.3408  -56.3364 C.3       4 UNK         0.0263 
     53 CB         34.2755  -50.8929  -56.5837 C.3       4 UNK        -0.1967 
     54 N          32.5217  -51.3713  -54.8992 N.am      4 UNK        -0.4237 
     55 C          32.4342  -50.3209  -54.0696 C.2       3 UNK         0.4908 
     56 O          32.5594  -49.1442  -54.4247 O.2       3 UNK        -0.5102 
     57 CA         32.1748  -50.6458  -52.5904 C.3       3 UNK         0.0241 
     58 CB         33.1963  -51.6629  -52.0363 C.3       3 UNK        -0.1971 
     59 N          32.2454  -49.4089  -51.8184 N.am      3 UNK        -0.4139 
     60 C          31.7474  -49.2033  -50.5931 C.2       2 UNK         0.5016 
     61 O          31.1050  -50.0493  -49.9695 O.2       2 UNK        -0.5319 
     62 CA         32.0233  -47.8382  -49.9348 C.3       2 UNK         0.0286 
     63 CB         32.9180  -48.0102  -48.6954 C.3       2 UNK        -0.1963 
     64 N          32.6814  -46.9079  -50.8554 N.am      2 UNK        -0.4790 
     65 C          32.0902  -45.8920  -51.4910 C.2       1 UNK         0.5024 
     66 O          30.9237  -45.5548  -51.2904 O.2       1 UNK        -0.4888 
     67 H67        36.4133  -47.1871  -54.4862 H         1 UNK         0.0892 
     68 H68        35.4391  -48.6040  -54.0771 H         1 UNK         0.0892 
     69 H69        34.8328  -47.4252  -55.2379 H         1 UNK         0.0892 
     70 H70        33.3690  -46.0049  -54.4015 H         1 UNK         0.3107 
     71 H71        32.1896  -44.6675  -53.1978 H         1 UNK         0.0773 
     72 H72        34.3984  -44.4018  -51.1074 H         1 UNK         0.0680 
     73 H73        33.0784  -43.2961  -51.3720 H         1 UNK         0.0680 
     74 H74        33.0789  -41.3601  -52.9520 H         1 UNK         0.0650 
     75 H75        34.1952  -41.0768  -54.2660 H         1 UNK         0.0650 
     76 H76        34.2653  -43.2859  -55.9848 H         1 UNK         0.1397 
     77 H77        30.2940  -44.2156  -57.2786 H         1 UNK         0.1363 
     78 H78        30.8912  -41.8544  -53.7522 H         1 UNK         0.1355 
     79 H79        28.4183  -43.0363  -56.2867 H         1 UNK         0.0707 
     80 H80        28.6773  -41.8619  -55.0188 H         1 UNK         0.0707 
     81 H81        26.2992  -42.8009  -54.7540 H         1 UNK         0.1034 
     82 H82        26.1916  -43.4619  -53.1524 H         1 UNK         0.1034 
     83 H83        25.8687  -45.7610  -54.0914 H         1 UNK         0.0482 
     84 H84        24.2705  -43.9317  -52.6712 H         1 UNK         0.3460 
     85 H85        22.6539  -44.0794  -53.3034 H         1 UNK         0.3460 
     86 H86        26.3430  -46.2753  -56.1628 H         1 UNK         0.2989 
     87 H87        25.6768  -44.8551  -59.2825 H         1 UNK         0.0559 
     88 H88        28.5440  -45.0139  -58.2588 H         1 UNK         0.0848 
     89 H89        27.7974  -43.5513  -58.8938 H         1 UNK         0.0848 
     90 H90        28.0339  -44.9423  -59.9409 H         1 UNK         0.0848 
     91 H91        27.3744  -47.0583  -58.4190 H         1 UNK         0.3144 
     92 H92        24.7497  -49.4587  -59.0597 H         1 UNK         0.0727 
     93 H93        27.4107  -48.6985  -60.3806 H         1 UNK         0.0790 
     94 H94        25.8506  -48.7880  -61.1882 H         1 UNK         0.0790 
     95 H95        26.5790  -50.2447  -60.5319 H         1 UNK         0.0790 
     96 H96        27.4826  -49.1346  -57.8742 H         1 UNK         0.3215 
     97 H97        26.5268  -50.7098  -54.9089 H         1 UNK         0.0863 
     98 H98        28.1924  -52.0945  -57.0803 H         1 UNK         0.0808 
     99 H99        26.8793  -52.8128  -56.1611 H         1 UNK         0.0808 
    100 H100       28.3674  -52.3588  -55.3452 H         1 UNK         0.0808 
    101 H101       29.0830  -49.9745  -56.0278 H         1 UNK         0.3118 
    102 H102       28.8198  -46.5144  -55.5669 H         1 UNK         0.0546 
    103 H103       30.6328  -46.6617  -53.8642 H         1 UNK         0.0828 
    104 H104       30.1399  -48.3096  -53.4630 H         1 UNK         0.0828 
    105 H105       29.0589  -46.9607  -53.1477 H         1 UNK         0.0828 
    106 H106       31.1419  -48.1222  -55.7995 H         1 UNK         0.3005 
    107 H107       30.9128  -48.9098  -59.2152 H         1 UNK         0.1257 
    108 H108       31.4891  -46.4709  -59.3647 H         1 UNK         0.0775 
    109 H109       32.8392  -47.5268  -59.6328 H         1 UNK         0.0775 
    110 H110       33.8618  -44.1629  -58.2437 H         1 UNK         0.0840 
    111 H111       32.2464  -44.4531  -58.8152 H         1 UNK         0.0840 
    112 H112       33.1236  -49.0780  -57.4995 H         1 UNK         0.2987 
    113 H113       32.7199  -52.3660  -56.6974 H         1 UNK         0.0785 
    114 H114       34.9761  -51.5625  -56.0847 H         1 UNK         0.0798 
    115 H115       34.5197  -50.9138  -57.6467 H         1 UNK         0.0798 
    116 H116       34.4723  -49.8853  -56.2165 H         1 UNK         0.0798 
    117 H117       32.3601  -52.2917  -54.5152 H         1 UNK         0.3079 
    118 H118       31.1656  -51.0550  -52.5110 H         1 UNK         0.0794 
    119 H119       33.0309  -51.8588  -50.9768 H         1 UNK         0.0786 
    120 H120       34.2200  -51.3037  -52.1503 H         1 UNK         0.0786 
    121 H121       33.1266  -52.6245  -52.5452 H         1 UNK         0.0786 
    122 H122       32.6878  -48.6419  -52.3081 H         1 UNK         0.3032 
    123 H123       31.0602  -47.4367  -49.6115 H         1 UNK         0.1094 
    124 H124       33.0887  -47.0565  -48.1955 H         1 UNK         0.0794 
    125 H125       32.4559  -48.6779  -47.9668 H         1 UNK         0.0794 
    126 H126       33.8901  -48.4317  -48.9549 H         1 UNK         0.0794 
    127 H127       33.6622  -47.0794  -51.0744 H         1 UNK         0.3016 
@<TRIPOS>BOND
     1    1    2 1    
     2    1   67 1    
     3    1   68 1    
     4    1   69 1    
     5    2    3 2    
     6    2    4 am   BACKBONE|DICT|INTERRES
     7    4    5 1    
     8    4   70 1    
     9    5    6 1    
    10    5   65 1    
    11    5   71 1    
    12    6    7 1    
    13    6   72 1    
    14    6   73 1    
    15    7    8 1    
    16    8    9 1    
    17    8   74 1    
    18    8   75 1    
    19    9   10 ar   
    20    9   14 ar   
    21   10   11 ar   
    22   10   76 1    
    23   11   12 ar   
    24   11   48 1    
    25   12   13 ar   
    26   12   77 1    
    27   13   14 ar   
    28   13   15 1    
    29   14   78 1    
    30   15   16 1    
    31   15   79 1    
    32   15   80 1    
    33   16   17 1    
    34   17   18 1    
    35   17   81 1    
    36   17   82 1    
    37   18   19 1    
    38   18   22 1    
    39   18   83 1    
    40   19   20 am   BACKBONE|DICT|INTERRES
    41   19   21 2    
    42   20   84 1    
    43   20   85 1    
    44   22   23 am   BACKBONE|DICT|INTERRES
    45   22   86 1    
    46   23   24 2    
    47   23   25 1    
    48   25   26 1    
    49   25   27 1    
    50   25   87 1    
    51   26   88 1    
    52   26   89 1    
    53   26   90 1    
    54   27   28 am   BACKBONE|DICT|INTERRES
    55   27   91 1    
    56   28   29 2    
    57   28   30 1    
    58   30   31 1    
    59   30   32 1    
    60   30   92 1    
    61   31   93 1    
    62   31   94 1    
    63   31   95 1    
    64   32   33 am   BACKBONE|DICT|INTERRES
    65   32   96 1    
    66   33   34 2    
    67   33   35 1    
    68   35   36 1    
    69   35   37 1    
    70   35   97 1    
    71   36   98 1    
    72   36   99 1    
    73   36  100 1    
    74   37   38 am   BACKBONE|DICT|INTERRES
    75   37  101 1    
    76   38   39 2    
    77   38   40 1    
    78   40   41 1    
    79   40   42 1    
    80   40  102 1    
    81   41  103 1    
    82   41  104 1    
    83   41  105 1    
    84   42   43 am   BACKBONE|DICT|INTERRES
    85   42  106 1    
    86   43   44 2    
    87   43   45 1    
    88   45   46 1    
    89   45   49 1    
    90   45  107 1    
    91   46   47 1    
    92   46  108 1    
    93   46  109 1    
    94   47   48 1    
    95   48  110 1    
    96   48  111 1    
    97   49   50 am   BACKBONE|DICT|INTERRES
    98   49  112 1    
    99   50   51 2    
   100   50   52 1    
   101   52   53 1    
   102   52   54 1    
   103   52  113 1    
   104   53  114 1    
   105   53  115 1    
   106   53  116 1    
   107   54   55 am   BACKBONE|DICT|INTERRES
   108   54  117 1    
   109   55   56 2    
   110   55   57 1    
   111   57   58 1    
   112   57   59 1    
   113   57  118 1    
   114   58  119 1    
   115   58  120 1    
   116   58  121 1    
   117   59   60 am   BACKBONE|DICT|INTERRES
   118   59  122 1    
   119   60   61 2    
   120   60   62 1    
   121   62   63 1    
   122   62   64 1    
   123   62  123 1    
   124   63  124 1    
   125   63  125 1    
   126   63  126 1    
   127   64   65 am   BACKBONE|DICT|INTERRES
   128   64  127 1    
   129   65   66 2    
@<TRIPOS>SUBSTRUCTURE
     1 UNK         1 GROUP             0       ****    0 ROOT    
