@<TRIPOS>MOLECULE
3R134
127   129    1
SMALL
USER_CHARGES


@<TRIPOS>ATOM
      1 CA         37.7875  -47.1926  -52.7461 C.3       0 UNK        -0.1968 
      2 C          36.4569  -47.0815  -53.4745 C.2       0 UNK         0.4852 
      3 O          35.9281  -48.0937  -53.9367 O.2       0 UNK        -0.5359 
      4 N          35.9035  -45.8628  -53.5663 N.am      1 UNK        -0.4300 
      5 CA         34.6339  -45.5470  -54.2380 C.3       1 UNK         0.0863 
      6 C6         34.3589  -44.0221  -54.2739 C.3       11 UNK        -0.0953 
      7 S7         34.2187  -43.2682  -52.6143 S.3       11 UNK        -0.2369 
      8 C8         33.3430  -41.7149  -52.9805 C.3       11 UNK         0.0226 
      9 C9         31.9247  -41.9020  -53.5150 C.ar      11 UNK        -0.0699 
     10 C10        31.0029  -42.7319  -52.8642 C.ar      11 UNK        -0.0804 
     11 C11        29.6824  -42.8228  -53.3203 C.ar      11 UNK        -0.0871 
     12 C12        29.2873  -42.0689  -54.4296 C.ar      11 UNK        -0.1008 
     13 C13        30.2021  -41.2542  -55.1054 C.ar      11 UNK        -0.0735 
     14 C14        31.5175  -41.1785  -54.6400 C.ar      11 UNK        -0.0945 
     15 C15        29.7833  -40.4079  -56.3061 C.3       11 UNK         0.0169 
     16 S16        28.6142  -41.2318  -57.4376 S.3       11 UNK        -0.2669 
     17 C17        29.6192  -42.6306  -58.0423 C.3       11 UNK        -0.0850 
     18 CA         28.7525  -43.7044  -58.7509 C.3       10 UNK         0.0855 
     19 C          29.6353  -44.7923  -59.4332 C.2       10 UNK         0.5543 
     20 N          29.4281  -46.0830  -59.2002 N.am      10 UNK        -0.7343 
     21 O          30.5279  -44.4552  -60.2071 O.2       10 UNK        -0.5027 
     22 N          27.7180  -44.2408  -57.8525 N.am      10 UNK        -0.4495 
     23 C          26.5284  -44.7022  -58.2491 C.2       10 UNK         0.4903 
     24 O          26.1132  -44.6600  -59.4093 O.2       10 UNK        -0.4860 
     25 CA         25.6577  -45.3425  -57.1541 C.3       9 UNK         0.0227 
     26 CB         24.3932  -44.5061  -56.9004 C.3       9 UNK        -0.1964 
     27 N          25.2813  -46.7222  -57.4789 N.am      9 UNK        -0.4231 
     28 C          26.1495  -47.7070  -57.7464 C.2       9 UNK         0.5014 
     29 O          27.3709  -47.5529  -57.7895 O.2       9 UNK        -0.5270 
     30 CA         25.5658  -49.0907  -58.0369 C.3       8 UNK         0.0284 
     31 CB         25.4800  -49.3386  -59.5545 C.3       8 UNK        -0.1977 
     32 N          26.4205  -50.0904  -57.4008 N.am      8 UNK        -0.4342 
     33 C          26.0526  -51.3416  -57.1000 C.2       8 UNK         0.5039 
     34 O          24.9514  -51.8188  -57.3789 O.2       8 UNK        -0.5547 
     35 CA         27.0684  -52.2011  -56.3337 C.3       7 UNK         0.0281 
     36 CB         28.2066  -52.6770  -57.2527 C.3       7 UNK        -0.1963 
     37 N          27.6142  -51.4677  -55.1908 N.am      7 UNK        -0.4444 
     38 C          27.0270  -51.4093  -53.9869 C.2       7 UNK         0.5104 
     39 O          26.0047  -52.0321  -53.6963 O.2       7 UNK        -0.5100 
     40 CA         27.6803  -50.5196  -52.9113 C.3       6 UNK         0.0396 
     41 CB         28.5943  -51.3649  -52.0104 C.3       6 UNK        -0.1801 
     42 N          28.4425  -49.3898  -53.4484 N.am      6 UNK        -0.4747 
     43 C          27.9135  -48.3603  -54.1275 C.2       6 UNK         0.5012 
     44 O          26.7049  -48.2248  -54.3212 O.2       6 UNK        -0.5003 
     45 CA         28.9029  -47.3391  -54.7330 C.3       5 UNK         0.0782 
     46 C46        29.2231  -46.1860  -53.7489 C.3       11 UNK        -0.0868 
     47 S47        27.8963  -44.9432  -53.6638 S.3       11 UNK        -0.2515 
     48 C48        28.6623  -43.6863  -52.5866 C.3       11 UNK         0.0199 
     49 N          30.1316  -47.9531  -55.2523 N.am      5 UNK        -0.4607 
     50 C          30.2038  -48.9402  -56.1584 C.2       4 UNK         0.5031 
     51 O          29.2283  -49.5227  -56.6280 O.2       4 UNK        -0.5119 
     52 CA         31.6108  -49.3932  -56.5687 C.3       4 UNK         0.0263 
     53 CB         32.2871  -48.3550  -57.4795 C.3       4 UNK        -0.1967 
     54 N          32.4363  -49.6445  -55.3889 N.am      4 UNK        -0.4237 
     55 C          32.3333  -50.7397  -54.6219 C.2       3 UNK         0.4908 
     56 O          31.6187  -51.7050  -54.8929 O.2       3 UNK        -0.5102 
     57 CA         33.1420  -50.7489  -53.3139 C.3       3 UNK         0.0241 
     58 CB         34.5553  -51.3041  -53.5510 C.3       3 UNK        -0.1971 
     59 N          33.2279  -49.4242  -52.6930 N.am      3 UNK        -0.4139 
     60 C          32.1792  -48.7719  -52.1677 C.2       2 UNK         0.5016 
     61 O          31.0377  -49.2281  -52.1323 O.2       2 UNK        -0.5319 
     62 CA         32.4281  -47.3543  -51.6278 C.3       2 UNK         0.0286 
     63 CB         32.8003  -47.4030  -50.1382 C.3       2 UNK        -0.1963 
     64 N          33.4558  -46.6130  -52.3599 N.am      2 UNK        -0.4790 
     65 C          33.4258  -46.3204  -53.6692 C.2       1 UNK         0.5024 
     66 O          32.5180  -46.6646  -54.4252 O.2       1 UNK        -0.4888 
     67 H67        38.5475  -47.5947  -53.4154 H         1 UNK         0.0892 
     68 H68        37.6932  -47.8653  -51.8941 H         1 UNK         0.0892 
     69 H69        38.1346  -46.2267  -52.3796 H         1 UNK         0.0892 
     70 H70        36.3766  -45.0723  -53.1513 H         1 UNK         0.3107 
     71 H71        34.7444  -45.8804  -55.2721 H         1 UNK         0.0773 
     72 H72        33.4488  -43.8210  -54.8424 H         1 UNK         0.0680 
     73 H73        35.1606  -43.5137  -54.8114 H         1 UNK         0.0680 
     74 H74        33.9495  -41.1384  -53.6809 H         1 UNK         0.0650 
     75 H75        33.2899  -41.1251  -52.0647 H         1 UNK         0.0650 
     76 H76        31.3108  -43.2876  -51.9890 H         1 UNK         0.1397 
     77 H77        28.2603  -42.1184  -54.7646 H         1 UNK         0.1363 
     78 H78        32.2224  -40.5286  -55.1408 H         1 UNK         0.1355 
     79 H79        29.3209  -39.4918  -55.9367 H         1 UNK         0.0707 
     80 H80        30.6579  -40.1016  -56.8823 H         1 UNK         0.0707 
     81 H81        30.3724  -42.2283  -58.7226 H         1 UNK         0.1034 
     82 H82        30.1663  -43.0784  -57.2107 H         1 UNK         0.1034 
     83 H83        28.2444  -43.2004  -59.5754 H         1 UNK         0.0482 
     84 H84        28.6716  -46.4076  -58.6040 H         1 UNK         0.3460 
     85 H85        30.0087  -46.7578  -59.6692 H         1 UNK         0.3460 
     86 H86        27.9778  -44.3222  -56.8809 H         1 UNK         0.2989 
     87 H87        26.2291  -45.3782  -56.2245 H         1 UNK         0.0559 
     88 H88        23.8076  -44.9093  -56.0740 H         1 UNK         0.0848 
     89 H89        24.6528  -43.4790  -56.6400 H         1 UNK         0.0848 
     90 H90        23.7515  -44.4660  -57.7817 H         1 UNK         0.0848 
     91 H91        24.2929  -46.9270  -57.5012 H         1 UNK         0.3144 
     92 H92        24.5668  -49.1511  -57.5998 H         1 UNK         0.0727 
     93 H93        25.0295  -50.3057  -59.7778 H         1 UNK         0.0790 
     94 H94        26.4665  -49.3129  -60.0196 H         1 UNK         0.0790 
     95 H95        24.8692  -48.5771  -60.0410 H         1 UNK         0.0790 
     96 H96        27.3493  -49.7568  -57.1414 H         1 UNK         0.3215 
     97 H97        26.5485  -53.0908  -55.9709 H         1 UNK         0.0863 
     98 H98        28.7530  -51.8462  -57.6988 H         1 UNK         0.0808 
     99 H99        27.8143  -53.2815  -58.0714 H         1 UNK         0.0808 
    100 H100       28.9231  -53.2927  -56.7086 H         1 UNK         0.0808 
    101 H101       28.4128  -50.8699  -55.3773 H         1 UNK         0.3118 
    102 H102       26.8773  -50.1129  -52.2932 H         1 UNK         0.0546 
    103 H103       29.4543  -51.7509  -52.5596 H         1 UNK         0.0828 
    104 H104       28.0580  -52.2200  -51.5968 H         1 UNK         0.0828 
    105 H105       28.9693  -50.7823  -51.1688 H         1 UNK         0.0828 
    106 H106       29.4429  -49.3914  -53.2647 H         1 UNK         0.3005 
    107 H107       28.4088  -46.9054  -55.6022 H         1 UNK         0.1257 
    108 H108       30.1226  -45.6575  -54.0675 H         1 UNK         0.0775 
    109 H109       29.4288  -46.5661  -52.7473 H         1 UNK         0.0775 
    110 H110       27.8765  -43.0381  -52.1963 H         1 UNK         0.0840 
    111 H111       29.1100  -44.1767  -51.7208 H         1 UNK         0.0840 
    112 H112       31.0023  -47.5368  -54.9300 H         1 UNK         0.2987 
    113 H113       31.5137  -50.3228  -57.1343 H         1 UNK         0.0785 
    114 H114       33.2706  -48.6946  -57.8041 H         1 UNK         0.0798 
    115 H115       31.6915  -48.1831  -58.3769 H         1 UNK         0.0798 
    116 H116       32.4119  -47.3911  -56.9857 H         1 UNK         0.0798 
    117 H117       33.0192  -48.8830  -55.0688 H         1 UNK         0.3079 
    118 H118       32.6284  -51.4124  -52.6145 H         1 UNK         0.0794 
    119 H119       35.1198  -51.3648  -52.6204 H         1 UNK         0.0786 
    120 H120       35.1220  -50.6850  -54.2475 H         1 UNK         0.0786 
    121 H121       34.5127  -52.3103  -53.9703 H         1 UNK         0.0786 
    122 H122       34.1251  -48.9561  -52.7312 H         1 UNK         0.3032 
    123 H123       31.4944  -46.7992  -51.7259 H         1 UNK         0.1094 
    124 H124       33.7480  -47.9176  -49.9743 H         1 UNK         0.0794 
    125 H125       32.8836  -46.4010  -49.7166 H         1 UNK         0.0794 
    126 H126       32.0383  -47.9315  -49.5633 H         1 UNK         0.0794 
    127 H127       34.2442  -46.2782  -51.8249 H         1 UNK         0.3016 
@<TRIPOS>BOND
     1    1    2 1    
     2    1   67 1    
     3    1   68 1    
     4    1   69 1    
     5    2    3 2    
     6    2    4 am   BACKBONE|DICT|INTERRES
     7    4    5 1    
     8    4   70 1    
     9    5    6 1    
    10    5   65 1    
    11    5   71 1    
    12    6    7 1    
    13    6   72 1    
    14    6   73 1    
    15    7    8 1    
    16    8    9 1    
    17    8   74 1    
    18    8   75 1    
    19    9   10 ar   
    20    9   14 ar   
    21   10   11 ar   
    22   10   76 1    
    23   11   12 ar   
    24   11   48 1    
    25   12   13 ar   
    26   12   77 1    
    27   13   14 ar   
    28   13   15 1    
    29   14   78 1    
    30   15   16 1    
    31   15   79 1    
    32   15   80 1    
    33   16   17 1    
    34   17   18 1    
    35   17   81 1    
    36   17   82 1    
    37   18   19 1    
    38   18   22 1    
    39   18   83 1    
    40   19   20 am   BACKBONE|DICT|INTERRES
    41   19   21 2    
    42   20   84 1    
    43   20   85 1    
    44   22   23 am   BACKBONE|DICT|INTERRES
    45   22   86 1    
    46   23   24 2    
    47   23   25 1    
    48   25   26 1    
    49   25   27 1    
    50   25   87 1    
    51   26   88 1    
    52   26   89 1    
    53   26   90 1    
    54   27   28 am   BACKBONE|DICT|INTERRES
    55   27   91 1    
    56   28   29 2    
    57   28   30 1    
    58   30   31 1    
    59   30   32 1    
    60   30   92 1    
    61   31   93 1    
    62   31   94 1    
    63   31   95 1    
    64   32   33 am   BACKBONE|DICT|INTERRES
    65   32   96 1    
    66   33   34 2    
    67   33   35 1    
    68   35   36 1    
    69   35   37 1    
    70   35   97 1    
    71   36   98 1    
    72   36   99 1    
    73   36  100 1    
    74   37   38 am   BACKBONE|DICT|INTERRES
    75   37  101 1    
    76   38   39 2    
    77   38   40 1    
    78   40   41 1    
    79   40   42 1    
    80   40  102 1    
    81   41  103 1    
    82   41  104 1    
    83   41  105 1    
    84   42   43 am   BACKBONE|DICT|INTERRES
    85   42  106 1    
    86   43   44 2    
    87   43   45 1    
    88   45   46 1    
    89   45   49 1    
    90   45  107 1    
    91   46   47 1    
    92   46  108 1    
    93   46  109 1    
    94   47   48 1    
    95   48  110 1    
    96   48  111 1    
    97   49   50 am   BACKBONE|DICT|INTERRES
    98   49  112 1    
    99   50   51 2    
   100   50   52 1    
   101   52   53 1    
   102   52   54 1    
   103   52  113 1    
   104   53  114 1    
   105   53  115 1    
   106   53  116 1    
   107   54   55 am   BACKBONE|DICT|INTERRES
   108   54  117 1    
   109   55   56 2    
   110   55   57 1    
   111   57   58 1    
   112   57   59 1    
   113   57  118 1    
   114   58  119 1    
   115   58  120 1    
   116   58  121 1    
   117   59   60 am   BACKBONE|DICT|INTERRES
   118   59  122 1    
   119   60   61 2    
   120   60   62 1    
   121   62   63 1    
   122   62   64 1    
   123   62  123 1    
   124   63  124 1    
   125   63  125 1    
   126   63  126 1    
   127   64   65 am   BACKBONE|DICT|INTERRES
   128   64  127 1    
   129   65   66 2    
@<TRIPOS>SUBSTRUCTURE
     1 UNK         1 GROUP             0       ****    0 ROOT    
