@<TRIPOS>MOLECULE
3R134
127   129    1
SMALL
USER_CHARGES


@<TRIPOS>ATOM
      1 CA         33.8501  -44.2480  -50.2548 C.3       0 UNK        -0.1968 
      2 C          34.7386  -44.2051  -51.4883 C.2       0 UNK         0.4852 
      3 O          35.8437  -43.6645  -51.4230 O.2       0 UNK        -0.5359 
      4 N          34.2736  -44.7772  -52.6038 N.am      1 UNK        -0.4300 
      5 CA         35.0249  -44.9217  -53.8472 C.3       1 UNK         0.0863 
      6 C6         35.0550  -43.6176  -54.6952 C.3       11 UNK        -0.0953 
      7 S7         33.5323  -43.2302  -55.6313 S.3       11 UNK        -0.2369 
      8 C8         32.7010  -41.9802  -54.6040 C.3       11 UNK         0.0226 
      9 C9         31.3724  -42.4911  -54.0637 C.ar      11 UNK        -0.0699 
     10 C10        31.2503  -42.8529  -52.7198 C.ar      11 UNK        -0.0804 
     11 C11        30.0236  -43.2833  -52.2062 C.ar      11 UNK        -0.0871 
     12 C12        28.9111  -43.3475  -53.0514 C.ar      11 UNK        -0.1008 
     13 C13        29.0214  -43.0057  -54.4027 C.ar      11 UNK        -0.0735 
     14 C14        30.2540  -42.5717  -54.9011 C.ar      11 UNK        -0.0945 
     15 C15        27.7959  -43.0727  -55.3046 C.3       11 UNK         0.0169 
     16 S16        27.4469  -44.7721  -55.8687 S.3       11 UNK        -0.2669 
     17 C17        27.9668  -44.7565  -57.6224 C.3       11 UNK        -0.0850 
     18 CA         29.1559  -45.6932  -57.9610 C.3       10 UNK         0.0855 
     19 C          30.4787  -45.2197  -57.3003 C.2       10 UNK         0.5543 
     20 N          30.9577  -45.8591  -56.2418 N.am      10 UNK        -0.7343 
     21 O          31.0801  -44.2622  -57.7797 O.2       10 UNK        -0.5027 
     22 N          28.8285  -47.1188  -57.7904 N.am      10 UNK        -0.4495 
     23 C          29.5251  -48.1158  -58.3575 C.2       10 UNK         0.4903 
     24 O          30.5302  -47.9443  -59.0483 O.2       10 UNK        -0.4860 
     25 CA         28.9934  -49.5460  -58.1805 C.3       9 UNK         0.0227 
     26 CB         29.3936  -50.1244  -56.8154 C.3       9 UNK        -0.1964 
     27 N          27.5391  -49.5953  -58.3270 N.am      9 UNK        -0.4231 
     28 C          26.8882  -49.9192  -59.4535 C.2       9 UNK         0.5014 
     29 O          27.4516  -50.2454  -60.4995 O.2       9 UNK        -0.5270 
     30 CA         25.3466  -49.9036  -59.4187 C.3       8 UNK         0.0284 
     31 CB         24.8016  -51.3312  -59.2413 C.3       8 UNK        -0.1977 
     32 N          24.7925  -49.0493  -58.3661 N.am      8 UNK        -0.4342 
     33 C          24.7814  -47.7099  -58.3969 C.2       8 UNK         0.5039 
     34 O          25.1631  -47.0438  -59.3596 O.2       8 UNK        -0.5547 
     35 CA         24.2816  -46.9877  -57.1304 C.3       7 UNK         0.0281 
     36 CB         22.7902  -46.6407  -57.2666 C.3       7 UNK        -0.1963 
     37 N          24.4990  -47.7120  -55.8682 N.am      7 UNK        -0.4444 
     38 C          25.6885  -48.1331  -55.4183 C.2       7 UNK         0.5104 
     39 O          26.7263  -48.0838  -56.0797 O.2       7 UNK        -0.5100 
     40 CA         25.7292  -48.7640  -54.0184 C.3       6 UNK         0.0396 
     41 CB         25.6896  -50.2968  -54.1241 C.3       6 UNK        -0.1801 
     42 N          26.9517  -48.3653  -53.3196 N.am      6 UNK        -0.4747 
     43 C          27.2084  -47.1235  -52.8819 C.2       6 UNK         0.5012 
     44 O          26.3585  -46.2313  -52.8728 O.2       6 UNK        -0.5003 
     45 CA         28.6270  -46.8205  -52.3429 C.3       5 UNK         0.0782 
     46 C46        28.5491  -46.1195  -50.9624 C.3       11 UNK        -0.0868 
     47 S47        30.1542  -45.4299  -50.4448 S.3       11 UNK        -0.2515 
     48 C48        29.9003  -43.6484  -50.7330 C.3       11 UNK         0.0199 
     49 N          29.4790  -48.0163  -52.2860 N.am      5 UNK        -0.4607 
     50 C          30.1754  -48.5214  -53.3099 C.2       4 UNK         0.5031 
     51 O          30.2156  -48.0222  -54.4358 O.2       4 UNK        -0.5119 
     52 CA         30.8749  -49.8581  -53.0378 C.3       4 UNK         0.0263 
     53 CB         29.8280  -50.9940  -52.9757 C.3       4 UNK        -0.1967 
     54 N          31.8532  -50.1170  -54.0924 N.am      4 UNK        -0.4237 
     55 C          32.7506  -51.1121  -54.1005 C.2       3 UNK         0.4908 
     56 O          32.8988  -51.9079  -53.1719 O.2       3 UNK        -0.5102 
     57 CA         33.6269  -51.2717  -55.3554 C.3       3 UNK         0.0241 
     58 CB         32.9626  -52.2297  -56.3587 C.3       3 UNK        -0.1971 
     59 N          33.9308  -50.0039  -56.0210 N.am      3 UNK        -0.4139 
     60 C          34.8178  -49.1083  -55.5673 C.2       2 UNK         0.5016 
     61 O          35.4960  -49.2767  -54.5503 O.2       2 UNK        -0.5319 
     62 CA         35.0150  -47.8247  -56.4021 C.3       2 UNK         0.0286 
     63 CB         33.8623  -47.5388  -57.3919 C.3       2 UNK        -0.1963 
     64 N          35.2789  -46.6493  -55.5609 N.am      2 UNK        -0.4790 
     65 C          34.4854  -46.1513  -54.6007 C.2       1 UNK         0.5024 
     66 O          33.3771  -46.6080  -54.3065 O.2       1 UNK        -0.4888 
     67 H67        33.4725  -43.2526  -50.0234 H         1 UNK         0.0892 
     68 H68        33.0023  -44.9159  -50.3953 H         1 UNK         0.0892 
     69 H69        34.4169  -44.6053  -49.3956 H         1 UNK         0.0892 
     70 H70        33.3777  -45.2509  -52.6223 H         1 UNK         0.3107 
     71 H71        36.0540  -45.1658  -53.5733 H         1 UNK         0.0773 
     72 H72        35.3353  -42.7656  -54.0748 H         1 UNK         0.0680 
     73 H73        35.8555  -43.6985  -55.4320 H         1 UNK         0.0680 
     74 H74        32.5233  -41.0927  -55.2128 H         1 UNK         0.0650 
     75 H75        33.3502  -41.6608  -53.7878 H         1 UNK         0.0650 
     76 H76        32.1092  -42.7829  -52.0690 H         1 UNK         0.1397 
     77 H77        27.9548  -43.6703  -52.6633 H         1 UNK         0.1363 
     78 H78        30.3473  -42.2977  -55.9430 H         1 UNK         0.1355 
     79 H79        27.9041  -42.3941  -56.1513 H         1 UNK         0.0707 
     80 H80        26.9274  -42.7142  -54.7501 H         1 UNK         0.0707 
     81 H81        28.1991  -43.7377  -57.9360 H         1 UNK         0.1034 
     82 H82        27.1027  -45.0471  -58.2224 H         1 UNK         0.1034 
     83 H83        29.3211  -45.5669  -59.0333 H         1 UNK         0.0482 
     84 H84        30.4610  -46.6356  -55.8186 H         1 UNK         0.3460 
     85 H85        31.8153  -45.5401  -55.8185 H         1 UNK         0.3460 
     86 H86        28.0505  -47.3376  -57.1727 H         1 UNK         0.2989 
     87 H87        29.4631  -50.1673  -58.9461 H         1 UNK         0.0559 
     88 H88        28.8680  -49.6318  -55.9984 H         1 UNK         0.0848 
     89 H89        30.4614  -49.9990  -56.6386 H         1 UNK         0.0848 
     90 H90        29.1743  -51.1904  -56.7570 H         1 UNK         0.0848 
     91 H91        27.0079  -49.2440  -57.5353 H         1 UNK         0.3144 
     92 H92        25.0016  -49.5253  -60.3838 H         1 UNK         0.0727 
     93 H93        23.7123  -51.3498  -59.2870 H         1 UNK         0.0790 
     94 H94        25.1070  -51.7657  -58.2882 H         1 UNK         0.0790 
     95 H95        25.1675  -51.9894  -60.0309 H         1 UNK         0.0790 
     96 H96        24.4437  -49.5088  -57.5376 H         1 UNK         0.3215 
     97 H97        24.8420  -46.0530  -57.0600 H         1 UNK         0.0863 
     98 H98        22.1681  -47.5362  -57.2978 H         1 UNK         0.0808 
     99 H99        22.6017  -46.0812  -58.1842 H         1 UNK         0.0808 
    100 H100       22.4484  -46.0205  -56.4376 H         1 UNK         0.0808 
    101 H101       23.6956  -47.8108  -55.2638 H         1 UNK         0.3118 
    102 H102       24.8671  -48.4242  -53.4407 H         1 UNK         0.0546 
    103 H103       25.7149  -50.7635  -53.1392 H         1 UNK         0.0828 
    104 H104       26.5304  -50.6854  -54.7008 H         1 UNK         0.0828 
    105 H105       24.7752  -50.6318  -54.6155 H         1 UNK         0.0828 
    106 H106       27.7149  -49.0235  -53.3300 H         1 UNK         0.3005 
    107 H107       29.0681  -46.1230  -53.0594 H         1 UNK         0.1257 
    108 H108       28.2156  -46.8228  -50.1973 H         1 UNK         0.0775 
    109 H109       27.8113  -45.3159  -50.9600 H         1 UNK         0.0775 
    110 H110       28.9299  -43.3381  -50.3425 H         1 UNK         0.0840 
    111 H111       30.6416  -43.0963  -50.1531 H         1 UNK         0.0840 
    112 H112       29.5018  -48.4943  -51.3969 H         1 UNK         0.2987 
    113 H113       31.4029  -49.7851  -52.0848 H         1 UNK         0.0785 
    114 H114       30.2832  -51.9511  -52.7226 H         1 UNK         0.0798 
    115 H115       29.0715  -50.8001  -52.2146 H         1 UNK         0.0798 
    116 H116       29.3106  -51.1163  -53.9277 H         1 UNK         0.0798 
    117 H117       31.8211  -49.4491  -54.8529 H         1 UNK         0.3079 
    118 H118       34.5693  -51.7239  -55.0378 H         1 UNK         0.0794 
    119 H119       33.6126  -52.4230  -57.2123 H         1 UNK         0.0786 
    120 H120       32.0193  -51.8361  -56.7375 H         1 UNK         0.0786 
    121 H121       32.7484  -53.1929  -55.8934 H         1 UNK         0.0786 
    122 H122       33.4279  -49.7972  -56.8717 H         1 UNK         0.3032 
    123 H123       35.9207  -47.9860  -56.9892 H         1 UNK         0.1094 
    124 H124       32.8914  -47.5523  -56.8980 H         1 UNK         0.0794 
    125 H125       33.9761  -46.5626  -57.8640 H         1 UNK         0.0794 
    126 H126       33.8331  -48.2761  -58.1950 H         1 UNK         0.0794 
    127 H127       36.1801  -46.2145  -55.7025 H         1 UNK         0.3016 
@<TRIPOS>BOND
     1    1    2 1    
     2    1   67 1    
     3    1   68 1    
     4    1   69 1    
     5    2    3 2    
     6    2    4 am   BACKBONE|DICT|INTERRES
     7    4    5 1    
     8    4   70 1    
     9    5    6 1    
    10    5   65 1    
    11    5   71 1    
    12    6    7 1    
    13    6   72 1    
    14    6   73 1    
    15    7    8 1    
    16    8    9 1    
    17    8   74 1    
    18    8   75 1    
    19    9   10 ar   
    20    9   14 ar   
    21   10   11 ar   
    22   10   76 1    
    23   11   12 ar   
    24   11   48 1    
    25   12   13 ar   
    26   12   77 1    
    27   13   14 ar   
    28   13   15 1    
    29   14   78 1    
    30   15   16 1    
    31   15   79 1    
    32   15   80 1    
    33   16   17 1    
    34   17   18 1    
    35   17   81 1    
    36   17   82 1    
    37   18   19 1    
    38   18   22 1    
    39   18   83 1    
    40   19   20 am   BACKBONE|DICT|INTERRES
    41   19   21 2    
    42   20   84 1    
    43   20   85 1    
    44   22   23 am   BACKBONE|DICT|INTERRES
    45   22   86 1    
    46   23   24 2    
    47   23   25 1    
    48   25   26 1    
    49   25   27 1    
    50   25   87 1    
    51   26   88 1    
    52   26   89 1    
    53   26   90 1    
    54   27   28 am   BACKBONE|DICT|INTERRES
    55   27   91 1    
    56   28   29 2    
    57   28   30 1    
    58   30   31 1    
    59   30   32 1    
    60   30   92 1    
    61   31   93 1    
    62   31   94 1    
    63   31   95 1    
    64   32   33 am   BACKBONE|DICT|INTERRES
    65   32   96 1    
    66   33   34 2    
    67   33   35 1    
    68   35   36 1    
    69   35   37 1    
    70   35   97 1    
    71   36   98 1    
    72   36   99 1    
    73   36  100 1    
    74   37   38 am   BACKBONE|DICT|INTERRES
    75   37  101 1    
    76   38   39 2    
    77   38   40 1    
    78   40   41 1    
    79   40   42 1    
    80   40  102 1    
    81   41  103 1    
    82   41  104 1    
    83   41  105 1    
    84   42   43 am   BACKBONE|DICT|INTERRES
    85   42  106 1    
    86   43   44 2    
    87   43   45 1    
    88   45   46 1    
    89   45   49 1    
    90   45  107 1    
    91   46   47 1    
    92   46  108 1    
    93   46  109 1    
    94   47   48 1    
    95   48  110 1    
    96   48  111 1    
    97   49   50 am   BACKBONE|DICT|INTERRES
    98   49  112 1    
    99   50   51 2    
   100   50   52 1    
   101   52   53 1    
   102   52   54 1    
   103   52  113 1    
   104   53  114 1    
   105   53  115 1    
   106   53  116 1    
   107   54   55 am   BACKBONE|DICT|INTERRES
   108   54  117 1    
   109   55   56 2    
   110   55   57 1    
   111   57   58 1    
   112   57   59 1    
   113   57  118 1    
   114   58  119 1    
   115   58  120 1    
   116   58  121 1    
   117   59   60 am   BACKBONE|DICT|INTERRES
   118   59  122 1    
   119   60   61 2    
   120   60   62 1    
   121   62   63 1    
   122   62   64 1    
   123   62  123 1    
   124   63  124 1    
   125   63  125 1    
   126   63  126 1    
   127   64   65 am   BACKBONE|DICT|INTERRES
   128   64  127 1    
   129   65   66 2    
@<TRIPOS>SUBSTRUCTURE
     1 UNK         1 GROUP             0       ****    0 ROOT    
