@<TRIPOS>MOLECULE
3R134
127   129    1
SMALL
USER_CHARGES


@<TRIPOS>ATOM
      1 CA         35.6156  -42.4928  -51.0087 C.3       0 UNK        -0.1968 
      2 C          35.7392  -43.8735  -51.6368 C.2       0 UNK         0.4852 
      3 O          36.6894  -44.5990  -51.3381 O.2       0 UNK        -0.5359 
      4 N          34.7913  -44.2351  -52.5104 N.am      1 UNK        -0.4300 
      5 CA         34.7136  -45.5394  -53.1724 C.3       1 UNK         0.0863 
      6 C6         33.7250  -45.5406  -54.3639 C.3       11 UNK        -0.0953 
      7 S7         34.0551  -44.2855  -55.6509 S.3       11 UNK        -0.2369 
      8 C8         33.0382  -42.8458  -55.1634 C.3       11 UNK         0.0226 
      9 C9         31.6103  -43.2101  -54.7772 C.ar      11 UNK        -0.0699 
     10 C10        31.2492  -43.2681  -53.4271 C.ar      11 UNK        -0.0804 
     11 C11        29.9580  -43.6439  -53.0504 C.ar      11 UNK        -0.0871 
     12 C12        29.0048  -43.8993  -54.0384 C.ar      11 UNK        -0.1008 
     13 C13        29.3595  -43.8763  -55.3891 C.ar      11 UNK        -0.0735 
     14 C14        30.6612  -43.5199  -55.7571 C.ar      11 UNK        -0.0945 
     15 C15        28.3503  -44.3221  -56.4315 C.3       11 UNK         0.0169 
     16 S16        27.2746  -42.9609  -56.9726 S.3       11 UNK        -0.2669 
     17 C17        27.8953  -42.6442  -58.6602 C.3       11 UNK        -0.0850 
     18 CA         26.9950  -43.2948  -59.7538 C.3       10 UNK         0.0855 
     19 C          27.3363  -42.7954  -61.1924 C.2       10 UNK         0.5543 
     20 N          27.1414  -43.5983  -62.2316 N.am      10 UNK        -0.7343 
     21 O          27.7515  -41.6539  -61.3783 O.2       10 UNK        -0.5027 
     22 N          26.8863  -44.7615  -59.6168 N.am      10 UNK        -0.4495 
     23 C          27.8780  -45.6487  -59.7668 C.2       10 UNK         0.4903 
     24 O          29.0392  -45.3435  -60.0424 O.2       10 UNK        -0.4860 
     25 CA         27.5031  -47.1232  -59.5396 C.3       9 UNK         0.0227 
     26 CB         28.6553  -48.0896  -59.8718 C.3       9 UNK        -0.1964 
     27 N          27.0818  -47.3559  -58.1585 N.am      9 UNK        -0.4231 
     28 C          25.8481  -47.1719  -57.6722 C.2       9 UNK         0.5014 
     29 O          24.9224  -46.6929  -58.3316 O.2       9 UNK        -0.5270 
     30 CA         25.6258  -47.6156  -56.2102 C.3       8 UNK         0.0284 
     31 CB         24.1393  -47.6310  -55.7971 C.3       8 UNK        -0.1977 
     32 N          26.2714  -48.9041  -55.9190 N.am      8 UNK        -0.4342 
     33 C          26.0407  -50.0877  -56.5091 C.2       8 UNK         0.5039 
     34 O          25.1387  -50.2880  -57.3236 O.2       8 UNK        -0.5547 
     35 CA         26.9989  -51.2464  -56.1732 C.3       7 UNK         0.0281 
     36 CB         27.9766  -51.4695  -57.3393 C.3       7 UNK        -0.1963 
     37 N          27.7697  -51.0428  -54.9435 N.am      7 UNK        -0.4444 
     38 C          27.2838  -51.1927  -53.7038 C.2       7 UNK         0.5104 
     39 O          26.1351  -51.5609  -53.4571 O.2       7 UNK        -0.5100 
     40 CA         28.2325  -50.8394  -52.5421 C.3       6 UNK         0.0396 
     41 CB         29.1874  -52.0044  -52.2385 C.3       6 UNK        -0.1801 
     42 N          29.0066  -49.6173  -52.7836 N.am      6 UNK        -0.4747 
     43 C          28.4705  -48.3995  -52.9592 C.2       6 UNK         0.5012 
     44 O          27.2619  -48.1703  -52.9120 O.2       6 UNK        -0.5003 
     45 CA         29.4385  -47.2595  -53.3190 C.3       5 UNK         0.0782 
     46 C46        30.1091  -46.6306  -52.0688 C.3       11 UNK        -0.0868 
     47 S47        28.9705  -45.4975  -51.1898 S.3       11 UNK        -0.2515 
     48 C48        29.6191  -43.8300  -51.5761 C.3       11 UNK         0.0199 
     49 N          30.4053  -47.7021  -54.3268 N.am      5 UNK        -0.4607 
     50 C          30.0970  -47.8786  -55.6210 C.2       4 UNK         0.5031 
     51 O          28.9980  -47.6093  -56.1033 O.2       4 UNK        -0.5119 
     52 CA         31.1635  -48.5013  -56.5360 C.3       4 UNK         0.0263 
     53 CB         31.9313  -47.4109  -57.2984 C.3       4 UNK        -0.1967 
     54 N          32.0881  -49.3898  -55.8238 N.am      4 UNK        -0.4237 
     55 C          31.7169  -50.5733  -55.3124 C.2       3 UNK         0.4908 
     56 O          30.5770  -51.0265  -55.4063 O.2       3 UNK        -0.5102 
     57 CA         32.7710  -51.3697  -54.5278 C.3       3 UNK         0.0241 
     58 CB         33.6578  -52.1802  -55.4864 C.3       3 UNK        -0.1971 
     59 N          33.6136  -50.5588  -53.6424 N.am      3 UNK        -0.4139 
     60 C          33.1722  -49.7629  -52.6568 C.2       2 UNK         0.5016 
     61 O          31.9815  -49.5271  -52.4450 O.2       2 UNK        -0.5319 
     62 CA         34.2437  -49.0882  -51.7881 C.3       2 UNK         0.0286 
     63 CB         35.4452  -50.0062  -51.4873 C.3       2 UNK        -0.1963 
     64 N          34.7081  -47.8799  -52.4676 N.am      2 UNK        -0.4790 
     65 C          34.2888  -46.6419  -52.1808 C.2       1 UNK         0.5024 
     66 O          33.5472  -46.3673  -51.2342 O.2       1 UNK        -0.4888 
     67 H67        34.7433  -41.9525  -51.3763 H         1 UNK         0.0892 
     68 H68        35.5284  -42.5804  -49.9261 H         1 UNK         0.0892 
     69 H69        36.5009  -41.8982  -51.2326 H         1 UNK         0.0892 
     70 H70        34.0310  -43.6050  -52.7059 H         1 UNK         0.3107 
     71 H71        35.7104  -45.7787  -53.5499 H         1 UNK         0.0773 
     72 H72        32.6922  -45.4716  -54.0254 H         1 UNK         0.0680 
     73 H73        33.7924  -46.5073  -54.8637 H         1 UNK         0.0680 
     74 H74        33.5339  -42.3216  -54.3455 H         1 UNK         0.0650 
     75 H75        33.0155  -42.1409  -55.9957 H         1 UNK         0.0650 
     76 H76        31.9836  -43.0555  -52.6638 H         1 UNK         0.1397 
     77 H77        28.0024  -44.1878  -53.7520 H         1 UNK         0.1363 
     78 H78        30.9435  -43.5092  -56.8010 H         1 UNK         0.1355 
     79 H79        28.8697  -44.7768  -57.2742 H         1 UNK         0.0707 
     80 H80        27.7233  -45.1103  -56.0149 H         1 UNK         0.0707 
     81 H81        28.9315  -42.9715  -58.7565 H         1 UNK         0.1034 
     82 H82        27.9187  -41.5601  -58.7839 H         1 UNK         0.1034 
     83 H83        25.9828  -42.9254  -59.5857 H         1 UNK         0.0482 
     84 H84        27.3528  -43.2670  -63.1597 H         1 UNK         0.3460 
     85 H85        26.7882  -44.5316  -62.0951 H         1 UNK         0.3460 
     86 H86        25.9731  -45.1184  -59.3589 H         1 UNK         0.2989 
     87 H87        26.6737  -47.3573  -60.2103 H         1 UNK         0.0559 
     88 H88        29.5210  -47.9217  -59.2316 H         1 UNK         0.0848 
     89 H89        28.9842  -47.9655  -60.9044 H         1 UNK         0.0848 
     90 H90        28.3476  -49.1287  -59.7536 H         1 UNK         0.0848 
     91 H91        27.8068  -47.6359  -57.4999 H         1 UNK         0.3144 
     92 H92        26.1307  -46.8781  -55.5852 H         1 UNK         0.0727 
     93 H93        23.5528  -48.3120  -56.4145 H         1 UNK         0.0790 
     94 H94        23.6970  -46.6392  -55.8980 H         1 UNK         0.0790 
     95 H95        24.0217  -47.9342  -54.7567 H         1 UNK         0.0790 
     96 H96        27.0478  -48.8556  -55.2724 H         1 UNK         0.3215 
     97 H97        26.3938  -52.1482  -56.0568 H         1 UNK         0.0863 
     98 H98        28.6096  -50.5971  -57.5049 H         1 UNK         0.0808 
     99 H99        27.4408  -51.6652  -58.2692 H         1 UNK         0.0808 
    100 H100       28.6273  -52.3243  -57.1541 H         1 UNK         0.0808 
    101 H101       28.7595  -50.8287  -55.0539 H         1 UNK         0.3118 
    102 H102       27.6192  -50.6668  -51.6553 H         1 UNK         0.0546 
    103 H103       29.8267  -51.7818  -51.3840 H         1 UNK         0.0828 
    104 H104       29.8318  -52.2329  -53.0873 H         1 UNK         0.0828 
    105 H105       28.6306  -52.9115  -51.9999 H         1 UNK         0.0828 
    106 H106       30.0186  -49.7080  -52.8139 H         1 UNK         0.3005 
    107 H107       28.8265  -46.4937  -53.7944 H         1 UNK         0.1257 
    108 H108       31.0009  -46.0741  -52.3563 H         1 UNK         0.0775 
    109 H109       30.4598  -47.3977  -51.3757 H         1 UNK         0.0775 
    110 H110       28.8790  -43.0844  -51.2828 H         1 UNK         0.0840 
    111 H111       30.4968  -43.6528  -50.9526 H         1 UNK         0.0840 
    112 H112       31.2958  -48.0301  -53.9798 H         1 UNK         0.2987 
    113 H113       30.6352  -49.1059  -57.2763 H         1 UNK         0.0785 
    114 H114       32.6686  -47.8399  -57.9769 H         1 UNK         0.0798 
    115 H115       31.2506  -46.8074  -57.9008 H         1 UNK         0.0798 
    116 H116       32.4445  -46.7262  -56.6281 H         1 UNK         0.0798 
    117 H117       33.0444  -49.0857  -55.7160 H         1 UNK         0.3079 
    118 H118       32.2309  -52.0752  -53.8932 H         1 UNK         0.0794 
    119 H119       34.3281  -52.8451  -54.9411 H         1 UNK         0.0786 
    120 H120       34.2669  -51.5345  -56.1203 H         1 UNK         0.0786 
    121 H121       33.0519  -52.8051  -56.1444 H         1 UNK         0.0786 
    122 H122       34.6108  -50.6807  -53.7414 H         1 UNK         0.3032 
    123 H123       33.7708  -48.8394  -50.8348 H         1 UNK         0.1094 
    124 H124       36.0415  -50.2242  -52.3737 H         1 UNK         0.0794 
    125 H125       36.1087  -49.5457  -50.7550 H         1 UNK         0.0794 
    126 H126       35.1164  -50.9575  -51.0657 H         1 UNK         0.0794 
    127 H127       35.3055  -48.0152  -53.2714 H         1 UNK         0.3016 
@<TRIPOS>BOND
     1    1    2 1    
     2    1   67 1    
     3    1   68 1    
     4    1   69 1    
     5    2    3 2    
     6    2    4 am   BACKBONE|DICT|INTERRES
     7    4    5 1    
     8    4   70 1    
     9    5    6 1    
    10    5   65 1    
    11    5   71 1    
    12    6    7 1    
    13    6   72 1    
    14    6   73 1    
    15    7    8 1    
    16    8    9 1    
    17    8   74 1    
    18    8   75 1    
    19    9   10 ar   
    20    9   14 ar   
    21   10   11 ar   
    22   10   76 1    
    23   11   12 ar   
    24   11   48 1    
    25   12   13 ar   
    26   12   77 1    
    27   13   14 ar   
    28   13   15 1    
    29   14   78 1    
    30   15   16 1    
    31   15   79 1    
    32   15   80 1    
    33   16   17 1    
    34   17   18 1    
    35   17   81 1    
    36   17   82 1    
    37   18   19 1    
    38   18   22 1    
    39   18   83 1    
    40   19   20 am   BACKBONE|DICT|INTERRES
    41   19   21 2    
    42   20   84 1    
    43   20   85 1    
    44   22   23 am   BACKBONE|DICT|INTERRES
    45   22   86 1    
    46   23   24 2    
    47   23   25 1    
    48   25   26 1    
    49   25   27 1    
    50   25   87 1    
    51   26   88 1    
    52   26   89 1    
    53   26   90 1    
    54   27   28 am   BACKBONE|DICT|INTERRES
    55   27   91 1    
    56   28   29 2    
    57   28   30 1    
    58   30   31 1    
    59   30   32 1    
    60   30   92 1    
    61   31   93 1    
    62   31   94 1    
    63   31   95 1    
    64   32   33 am   BACKBONE|DICT|INTERRES
    65   32   96 1    
    66   33   34 2    
    67   33   35 1    
    68   35   36 1    
    69   35   37 1    
    70   35   97 1    
    71   36   98 1    
    72   36   99 1    
    73   36  100 1    
    74   37   38 am   BACKBONE|DICT|INTERRES
    75   37  101 1    
    76   38   39 2    
    77   38   40 1    
    78   40   41 1    
    79   40   42 1    
    80   40  102 1    
    81   41  103 1    
    82   41  104 1    
    83   41  105 1    
    84   42   43 am   BACKBONE|DICT|INTERRES
    85   42  106 1    
    86   43   44 2    
    87   43   45 1    
    88   45   46 1    
    89   45   49 1    
    90   45  107 1    
    91   46   47 1    
    92   46  108 1    
    93   46  109 1    
    94   47   48 1    
    95   48  110 1    
    96   48  111 1    
    97   49   50 am   BACKBONE|DICT|INTERRES
    98   49  112 1    
    99   50   51 2    
   100   50   52 1    
   101   52   53 1    
   102   52   54 1    
   103   52  113 1    
   104   53  114 1    
   105   53  115 1    
   106   53  116 1    
   107   54   55 am   BACKBONE|DICT|INTERRES
   108   54  117 1    
   109   55   56 2    
   110   55   57 1    
   111   57   58 1    
   112   57   59 1    
   113   57  118 1    
   114   58  119 1    
   115   58  120 1    
   116   58  121 1    
   117   59   60 am   BACKBONE|DICT|INTERRES
   118   59  122 1    
   119   60   61 2    
   120   60   62 1    
   121   62   63 1    
   122   62   64 1    
   123   62  123 1    
   124   63  124 1    
   125   63  125 1    
   126   63  126 1    
   127   64   65 am   BACKBONE|DICT|INTERRES
   128   64  127 1    
   129   65   66 2    
@<TRIPOS>SUBSTRUCTURE
     1 UNK         1 GROUP             0       ****    0 ROOT    
