@<TRIPOS>MOLECULE
3R134
127   129    1
SMALL
USER_CHARGES


@<TRIPOS>ATOM
      1 CA         30.9448  -45.6092  -47.5985 C.3       0 UNK        -0.1968 
      2 C          31.8863  -45.5383  -48.7910 C.2       0 UNK         0.4852 
      3 O          33.0972  -45.4088  -48.6061 O.2       0 UNK        -0.5359 
      4 N          31.3380  -45.6122  -50.0098 N.am      1 UNK        -0.4300 
      5 CA         32.0894  -45.6111  -51.2686 C.3       1 UNK         0.0863 
      6 C6         31.1920  -45.2361  -52.4728 C.3       11 UNK        -0.0953 
      7 S7         30.4523  -43.5720  -52.3222 S.3       11 UNK        -0.2369 
      8 C8         31.7434  -42.4781  -53.0096 C.3       11 UNK         0.0226 
      9 C9         31.9926  -42.7352  -54.4890 C.ar      11 UNK        -0.0699 
     10 C10        33.1181  -43.4587  -54.8935 C.ar      11 UNK        -0.0804 
     11 C11        33.2983  -43.7913  -56.2390 C.ar      11 UNK        -0.0871 
     12 C12        32.3924  -43.3230  -57.1932 C.ar      11 UNK        -0.1008 
     13 C13        31.2594  -42.6058  -56.7998 C.ar      11 UNK        -0.0735 
     14 C14        31.0697  -42.3031  -55.4473 C.ar      11 UNK        -0.0945 
     15 C15        30.1940  -42.2595  -57.8273 C.3       11 UNK         0.0169 
     16 S16        29.3652  -43.7822  -58.3817 S.3       11 UNK        -0.2669 
     17 C17        27.9041  -43.1337  -59.2609 C.3       11 UNK        -0.0850 
     18 CA         26.6205  -43.0994  -58.3858 C.3       10 UNK         0.0855 
     19 C          25.3933  -42.6828  -59.2483 C.2       10 UNK         0.5543 
     20 N          24.4370  -43.5658  -59.5110 N.am      10 UNK        -0.7343 
     21 O          25.3138  -41.5387  -59.6880 O.2       10 UNK        -0.5027 
     22 N          26.4484  -44.3417  -57.6151 N.am      10 UNK        -0.4495 
     23 C          25.5914  -44.5306  -56.6045 C.2       10 UNK         0.4903 
     24 O          24.8262  -43.6597  -56.1885 O.2       10 UNK        -0.4860 
     25 CA         25.6106  -45.9137  -55.9220 C.3       9 UNK         0.0227 
     26 CB         24.2110  -46.3579  -55.4481 C.3       9 UNK        -0.1964 
     27 N          26.2556  -46.9700  -56.7134 N.am      9 UNK        -0.4231 
     28 C          25.8593  -47.4794  -57.8901 C.2       9 UNK         0.5014 
     29 O          24.8814  -47.0797  -58.5236 O.2       9 UNK        -0.5270 
     30 CA         26.7125  -48.6251  -58.4636 C.3       8 UNK         0.0284 
     31 CB         27.8993  -48.0610  -59.2624 C.3       8 UNK        -0.1977 
     32 N          27.2054  -49.5408  -57.4292 N.am      8 UNK        -0.4342 
     33 C          26.4281  -50.3578  -56.7016 C.2       8 UNK         0.5039 
     34 O          25.2200  -50.5044  -56.8917 O.2       8 UNK        -0.5547 
     35 CA         27.1042  -51.1207  -55.5476 C.3       7 UNK         0.0281 
     36 CB         27.8271  -52.3753  -56.0626 C.3       7 UNK        -0.1963 
     37 N          28.0357  -50.2784  -54.7923 N.am      7 UNK        -0.4444 
     38 C          27.6696  -49.2225  -54.0506 C.2       7 UNK         0.5104 
     39 O          26.5004  -48.8996  -53.8434 O.2       7 UNK        -0.5100 
     40 CA         28.7974  -48.3558  -53.4681 C.3       6 UNK         0.0396 
     41 CB         29.2183  -48.8652  -52.0808 C.3       6 UNK        -0.1801 
     42 N          29.9601  -48.2779  -54.3589 N.am      6 UNK        -0.4747 
     43 C          29.9672  -47.5979  -55.5164 C.2       6 UNK         0.5012 
     44 O          29.0064  -46.9437  -55.9199 O.2       6 UNK        -0.5003 
     45 CA         31.2363  -47.6909  -56.3903 C.3       5 UNK         0.0782 
     46 C46        32.2860  -46.6616  -55.9227 C.3       11 UNK        -0.0868 
     47 S47        33.6305  -46.4049  -57.1386 S.3       11 UNK        -0.2515 
     48 C48        34.3647  -44.8003  -56.6373 C.3       11 UNK         0.0199 
     49 N          31.7739  -49.0515  -56.4245 N.am      5 UNK        -0.4607 
     50 C          31.1334  -50.0993  -56.9602 C.2       4 UNK         0.5031 
     51 O          30.0550  -50.0099  -57.5462 O.2       4 UNK        -0.5119 
     52 CA         31.7645  -51.4878  -56.7559 C.3       4 UNK         0.0263 
     53 CB         32.7066  -51.8256  -57.9213 C.3       4 UNK        -0.1967 
     54 N          32.4896  -51.6146  -55.4888 N.am      4 UNK        -0.4237 
     55 C          31.9610  -51.4287  -54.2705 C.2       3 UNK         0.4908 
     56 O          30.7689  -51.1925  -54.0748 O.2       3 UNK        -0.5102 
     57 CA         32.9257  -51.4786  -53.0721 C.3       3 UNK         0.0241 
     58 CB         34.1112  -52.4446  -53.2926 C.3       3 UNK        -0.1971 
     59 N          33.4249  -50.1573  -52.6607 N.am      3 UNK        -0.4139 
     60 C          34.0379  -49.2330  -53.4156 C.2       2 UNK         0.5016 
     61 O          34.1103  -49.2818  -54.6449 O.2       2 UNK        -0.5319 
     62 CA         34.7154  -48.0693  -52.6639 C.3       2 UNK         0.0286 
     63 CB         35.9309  -47.5306  -53.4409 C.3       2 UNK        -0.1963 
     64 N          33.8191  -46.9478  -52.3753 N.am      2 UNK        -0.4790 
     65 C          32.8089  -46.9611  -51.4965 C.2       1 UNK         0.5024 
     66 O          32.4590  -47.9717  -50.8821 O.2       1 UNK        -0.4888 
     67 H67        29.9061  -45.7276  -47.9052 H         1 UNK         0.0892 
     68 H68        31.0212  -44.6983  -47.0056 H         1 UNK         0.0892 
     69 H69        31.2085  -46.4543  -46.9628 H         1 UNK         0.0892 
     70 H70        30.3392  -45.7227  -50.0990 H         1 UNK         0.3107 
     71 H71        32.8677  -44.8501  -51.1844 H         1 UNK         0.0773 
     72 H72        30.3757  -45.9513  -52.5739 H         1 UNK         0.0680 
     73 H73        31.7458  -45.2905  -53.4070 H         1 UNK         0.0680 
     74 H74        31.4331  -41.4413  -52.8726 H         1 UNK         0.0650 
     75 H75        32.6620  -42.5990  -52.4335 H         1 UNK         0.0650 
     76 H76        33.8099  -43.8304  -54.1507 H         1 UNK         0.1397 
     77 H77        32.5110  -43.6082  -58.2300 H         1 UNK         0.1363 
     78 H78        30.1808  -41.7744  -55.1313 H         1 UNK         0.1355 
     79 H79        30.6468  -41.7529  -58.6808 H         1 UNK         0.0707 
     80 H80        29.4569  -41.5753  -57.4039 H         1 UNK         0.0707 
     81 H81        27.7465  -43.7693  -60.1346 H         1 UNK         0.1034 
     82 H82        28.1282  -42.1394  -59.6524 H         1 UNK         0.1034 
     83 H83        26.7538  -42.3036  -57.6507 H         1 UNK         0.0482 
     84 H84        24.5016  -44.5067  -59.1515 H         1 UNK         0.3460 
     85 H85        23.6450  -43.2894  -60.0692 H         1 UNK         0.3460 
     86 H86        27.0660  -45.0998  -57.8635 H         1 UNK         0.2989 
     87 H87        26.2336  -45.7970  -55.0341 H         1 UNK         0.0559 
     88 H88        24.2521  -47.3283  -54.9529 H         1 UNK         0.0848 
     89 H89        23.5070  -46.4332  -56.2772 H         1 UNK         0.0848 
     90 H90        23.7948  -45.6483  -54.7323 H         1 UNK         0.0848 
     91 H91        27.1435  -47.2939  -56.3384 H         1 UNK         0.3144 
     92 H92        26.0826  -49.1985  -59.1469 H         1 UNK         0.0727 
     93 H93        28.4750  -48.8588  -59.7322 H         1 UNK         0.0790 
     94 H94        28.5789  -47.4879  -58.6306 H         1 UNK         0.0790 
     95 H95        27.5555  -47.3977  -60.0574 H         1 UNK         0.0790 
     96 H96        28.2106  -49.5580  -57.2727 H         1 UNK         0.3215 
     97 H97        26.3204  -51.4428  -54.8584 H         1 UNK         0.0863 
     98 H98        28.3224  -52.9117  -55.2530 H         1 UNK         0.0808 
     99 H99        28.5768  -52.1325  -56.8144 H         1 UNK         0.0808 
    100 H100       27.1200  -53.0650  -56.5251 H         1 UNK         0.0808 
    101 H101       29.0223  -50.5143  -54.8329 H         1 UNK         0.3118 
    102 H102       28.3992  -47.3464  -53.3430 H         1 UNK         0.0546 
    103 H103       28.3565  -48.9369  -51.4159 H         1 UNK         0.0828 
    104 H104       29.9284  -48.1898  -51.6080 H         1 UNK         0.0828 
    105 H105       29.6740  -49.8540  -52.1253 H         1 UNK         0.0828 
    106 H106       30.7480  -48.8694  -54.1316 H         1 UNK         0.3005 
    107 H107       30.9331  -47.4283  -57.4067 H         1 UNK         0.1257 
    108 H108       32.7234  -46.9492  -54.9676 H         1 UNK         0.0775 
    109 H109       31.7721  -45.7167  -55.7544 H         1 UNK         0.0775 
    110 H110       35.0607  -44.9727  -55.8152 H         1 UNK         0.0840 
    111 H111       34.9565  -44.4025  -57.4627 H         1 UNK         0.0840 
    112 H112       32.6593  -49.2003  -55.9462 H         1 UNK         0.2987 
    113 H113       30.9564  -52.2208  -56.7447 H         1 UNK         0.0785 
    114 H114       33.5545  -51.1408  -57.9661 H         1 UNK         0.0798 
    115 H115       32.1834  -51.7599  -58.8764 H         1 UNK         0.0798 
    116 H116       33.0965  -52.8401  -57.8365 H         1 UNK         0.0798 
    117 H117       33.4889  -51.7477  -55.5505 H         1 UNK         0.3079 
    118 H118       32.3428  -51.8628  -52.2334 H         1 UNK         0.0794 
    119 H119       34.8163  -52.0759  -54.0385 H         1 UNK         0.0786 
    120 H120       33.7654  -53.4269  -53.6185 H         1 UNK         0.0786 
    121 H121       34.6669  -52.5945  -52.3668 H         1 UNK         0.0786 
    122 H122       33.3120  -49.9397  -51.6781 H         1 UNK         0.3032 
    123 H123       35.0844  -48.4621  -51.7134 H         1 UNK         0.1094 
    124 H124       35.6375  -47.0754  -54.3879 H         1 UNK         0.0794 
    125 H125       36.4753  -46.7839  -52.8626 H         1 UNK         0.0794 
    126 H126       36.6326  -48.3332  -53.6720 H         1 UNK         0.0794 
    127 H127       34.0377  -46.0822  -52.8449 H         1 UNK         0.3016 
@<TRIPOS>BOND
     1    1    2 1    
     2    1   67 1    
     3    1   68 1    
     4    1   69 1    
     5    2    3 2    
     6    2    4 am   BACKBONE|DICT|INTERRES
     7    4    5 1    
     8    4   70 1    
     9    5    6 1    
    10    5   65 1    
    11    5   71 1    
    12    6    7 1    
    13    6   72 1    
    14    6   73 1    
    15    7    8 1    
    16    8    9 1    
    17    8   74 1    
    18    8   75 1    
    19    9   10 ar   
    20    9   14 ar   
    21   10   11 ar   
    22   10   76 1    
    23   11   12 ar   
    24   11   48 1    
    25   12   13 ar   
    26   12   77 1    
    27   13   14 ar   
    28   13   15 1    
    29   14   78 1    
    30   15   16 1    
    31   15   79 1    
    32   15   80 1    
    33   16   17 1    
    34   17   18 1    
    35   17   81 1    
    36   17   82 1    
    37   18   19 1    
    38   18   22 1    
    39   18   83 1    
    40   19   20 am   BACKBONE|DICT|INTERRES
    41   19   21 2    
    42   20   84 1    
    43   20   85 1    
    44   22   23 am   BACKBONE|DICT|INTERRES
    45   22   86 1    
    46   23   24 2    
    47   23   25 1    
    48   25   26 1    
    49   25   27 1    
    50   25   87 1    
    51   26   88 1    
    52   26   89 1    
    53   26   90 1    
    54   27   28 am   BACKBONE|DICT|INTERRES
    55   27   91 1    
    56   28   29 2    
    57   28   30 1    
    58   30   31 1    
    59   30   32 1    
    60   30   92 1    
    61   31   93 1    
    62   31   94 1    
    63   31   95 1    
    64   32   33 am   BACKBONE|DICT|INTERRES
    65   32   96 1    
    66   33   34 2    
    67   33   35 1    
    68   35   36 1    
    69   35   37 1    
    70   35   97 1    
    71   36   98 1    
    72   36   99 1    
    73   36  100 1    
    74   37   38 am   BACKBONE|DICT|INTERRES
    75   37  101 1    
    76   38   39 2    
    77   38   40 1    
    78   40   41 1    
    79   40   42 1    
    80   40  102 1    
    81   41  103 1    
    82   41  104 1    
    83   41  105 1    
    84   42   43 am   BACKBONE|DICT|INTERRES
    85   42  106 1    
    86   43   44 2    
    87   43   45 1    
    88   45   46 1    
    89   45   49 1    
    90   45  107 1    
    91   46   47 1    
    92   46  108 1    
    93   46  109 1    
    94   47   48 1    
    95   48  110 1    
    96   48  111 1    
    97   49   50 am   BACKBONE|DICT|INTERRES
    98   49  112 1    
    99   50   51 2    
   100   50   52 1    
   101   52   53 1    
   102   52   54 1    
   103   52  113 1    
   104   53  114 1    
   105   53  115 1    
   106   53  116 1    
   107   54   55 am   BACKBONE|DICT|INTERRES
   108   54  117 1    
   109   55   56 2    
   110   55   57 1    
   111   57   58 1    
   112   57   59 1    
   113   57  118 1    
   114   58  119 1    
   115   58  120 1    
   116   58  121 1    
   117   59   60 am   BACKBONE|DICT|INTERRES
   118   59  122 1    
   119   60   61 2    
   120   60   62 1    
   121   62   63 1    
   122   62   64 1    
   123   62  123 1    
   124   63  124 1    
   125   63  125 1    
   126   63  126 1    
   127   64   65 am   BACKBONE|DICT|INTERRES
   128   64  127 1    
   129   65   66 2    
@<TRIPOS>SUBSTRUCTURE
     1 UNK         1 GROUP             0       ****    0 ROOT    
