@<TRIPOS>MOLECULE
3R134
127   129    1
SMALL
USER_CHARGES


@<TRIPOS>ATOM
      1 CA         29.8410  -43.2562  -51.6745 C.3       0 UNK        -0.1968 
      2 C          30.1608  -44.3850  -52.6486 C.2       0 UNK         0.4852 
      3 O          29.3590  -44.6541  -53.5378 O.2       0 UNK        -0.5359 
      4 N          31.2951  -45.0832  -52.5291 N.am      1 UNK        -0.4300 
      5 CA         32.2702  -45.0269  -51.4381 C.3       1 UNK         0.0863 
      6 C6         33.6208  -44.3865  -51.8564 C.3       11 UNK        -0.0953 
      7 S7         33.5650  -42.5665  -51.7913 S.3       11 UNK        -0.2369 
      8 C8         34.2463  -42.0890  -53.4105 C.3       11 UNK         0.0226 
      9 C9         33.2533  -42.3000  -54.5442 C.ar      11 UNK        -0.0699 
     10 C10        33.5166  -43.2316  -55.5514 C.ar      11 UNK        -0.0804 
     11 C11        32.6120  -43.4138  -56.6020 C.ar      11 UNK        -0.0871 
     12 C12        31.4497  -42.6386  -56.6488 C.ar      11 UNK        -0.1008 
     13 C13        31.1618  -41.7095  -55.6396 C.ar      11 UNK        -0.0735 
     14 C14        32.0786  -41.5440  -54.5972 C.ar      11 UNK        -0.0945 
     15 C15        29.8884  -40.8574  -55.6227 C.3       11 UNK         0.0169 
     16 S16        28.5700  -41.3350  -56.7961 S.3       11 UNK        -0.2669 
     17 C17        28.0885  -42.9700  -56.1431 C.3       11 UNK        -0.0850 
     18 CA         27.3247  -43.8382  -57.1732 C.3       10 UNK         0.0855 
     19 C          28.2136  -44.2896  -58.3589 C.2       10 UNK         0.5543 
     20 N          27.9362  -43.8164  -59.5658 N.am      10 UNK        -0.7343 
     21 O          29.1659  -45.0461  -58.1903 O.2       10 UNK        -0.5027 
     22 N          26.7670  -45.0256  -56.5259 N.am      10 UNK        -0.4495 
     23 C          25.5023  -45.1771  -56.1207 C.2       10 UNK         0.4903 
     24 O          24.6464  -44.2931  -56.1906 O.2       10 UNK        -0.4860 
     25 CA         25.1415  -46.5633  -55.5513 C.3       9 UNK         0.0227 
     26 CB         23.6288  -46.7564  -55.3133 C.3       9 UNK        -0.1964 
     27 N          25.6959  -47.6492  -56.3668 N.am      9 UNK        -0.4231 
     28 C          25.4293  -47.9352  -57.6504 C.2       9 UNK         0.5014 
     29 O          24.5642  -47.3692  -58.3201 O.2       9 UNK        -0.5270 
     30 CA         26.2948  -49.0184  -58.3220 C.3       8 UNK         0.0284 
     31 CB         27.3325  -48.3595  -59.2464 C.3       8 UNK        -0.1977 
     32 N          26.9885  -49.8933  -57.3708 N.am      8 UNK        -0.4342 
     33 C          26.3933  -50.8433  -56.6353 C.2       8 UNK         0.5039 
     34 O          25.2005  -51.1349  -56.7303 O.2       8 UNK        -0.5547 
     35 CA         27.2661  -51.5701  -55.5963 C.3       7 UNK         0.0281 
     36 CB         28.0939  -52.6818  -56.2597 C.3       7 UNK        -0.1963 
     37 N          28.1514  -50.6621  -54.8604 N.am      7 UNK        -0.4444 
     38 C          27.7308  -49.6885  -54.0388 C.2       7 UNK         0.5104 
     39 O          26.5484  -49.4796  -53.7702 O.2       7 UNK        -0.5100 
     40 CA         28.8046  -48.7567  -53.4537 C.3       6 UNK         0.0396 
     41 CB         29.4351  -49.3614  -52.1910 C.3       6 UNK        -0.1801 
     42 N          29.8465  -48.4265  -54.4271 N.am      6 UNK        -0.4747 
     43 C          29.6402  -47.6841  -55.5256 C.2       6 UNK         0.5012 
     44 O          28.5565  -47.1817  -55.8206 O.2       6 UNK        -0.5003 
     45 CA         30.8411  -47.5230  -56.4730 C.3       5 UNK         0.0782 
     46 C46        31.7864  -46.4241  -55.9385 C.3       11 UNK        -0.0868 
     47 S47        33.2270  -46.1174  -57.0153 S.3       11 UNK        -0.2515 
     48 C48        32.8680  -44.4577  -57.6852 C.3       11 UNK         0.0199 
     49 N          31.5168  -48.8071  -56.6861 N.am      5 UNK        -0.4607 
     50 C          30.9637  -49.8450  -57.3290 C.2       4 UNK         0.5031 
     51 O          29.8341  -49.8224  -57.8152 O.2       4 UNK        -0.5119 
     52 CA         31.7827  -51.1425  -57.4170 C.3       4 UNK         0.0263 
     53 CB         32.6840  -51.1224  -58.6616 C.3       4 UNK        -0.1967 
     54 N          32.5953  -51.4130  -56.2296 N.am      4 UNK        -0.4237 
     55 C          32.1274  -51.5635  -54.9825 C.2       3 UNK         0.4908 
     56 O          30.9341  -51.4805  -54.6844 O.2       3 UNK        -0.5102 
     57 CA         33.1605  -51.8402  -53.8713 C.3       3 UNK         0.0241 
     58 CB         34.6205  -51.9372  -54.3730 C.3       3 UNK        -0.1971 
     59 N          33.0805  -50.8737  -52.7692 N.am      3 UNK        -0.4139 
     60 C          33.1294  -49.5374  -52.8635 C.2       2 UNK         0.5016 
     61 O          33.1559  -48.9107  -53.9277 O.2       2 UNK        -0.5319 
     62 CA         33.1713  -48.7701  -51.5368 C.3       2 UNK         0.0286 
     63 CB         34.5325  -48.9475  -50.8362 C.3       2 UNK        -0.1963 
     64 N          32.9410  -47.3542  -51.8089 N.am      2 UNK        -0.4790 
     65 C          32.4650  -46.4636  -50.9305 C.2       1 UNK         0.5024 
     66 O          32.1581  -46.7456  -49.7718 O.2       1 UNK        -0.4888 
     67 H67        28.9731  -42.6936  -52.0177 H         1 UNK         0.0892 
     68 H68        29.6136  -43.6532  -50.6858 H         1 UNK         0.0892 
     69 H69        30.6721  -42.5580  -51.5942 H         1 UNK         0.0892 
     70 H70        31.4390  -45.8343  -53.1844 H         1 UNK         0.3107 
     71 H71        31.8701  -44.4689  -50.5901 H         1 UNK         0.0773 
     72 H72        33.9190  -44.7204  -52.8517 H         1 UNK         0.0680 
     73 H73        34.4244  -44.6909  -51.1825 H         1 UNK         0.0680 
     74 H74        35.1730  -42.6367  -53.5884 H         1 UNK         0.0650 
     75 H75        34.5182  -41.0332  -53.3753 H         1 UNK         0.0650 
     76 H76        34.4204  -43.8243  -55.5154 H         1 UNK         0.1397 
     77 H77        30.7631  -42.7812  -57.4705 H         1 UNK         0.1363 
     78 H78        31.8766  -40.8249  -53.8148 H         1 UNK         0.1355 
     79 H79        29.4650  -40.8661  -54.6169 H         1 UNK         0.0707 
     80 H80        30.1672  -39.8236  -55.8305 H         1 UNK         0.0707 
     81 H81        27.4681  -42.8050  -55.2609 H         1 UNK         0.1034 
     82 H82        28.9703  -43.5047  -55.7891 H         1 UNK         0.1034 
     83 H83        26.5045  -43.2404  -57.5764 H         1 UNK         0.0482 
     84 H84        27.1676  -43.1810  -59.7123 H         1 UNK         0.3460 
     85 H85        28.5126  -44.0948  -60.3439 H         1 UNK         0.3460 
     86 H86        27.4164  -45.8039  -56.4199 H         1 UNK         0.2989 
     87 H87        25.6384  -46.6331  -54.5825 H         1 UNK         0.0559 
     88 H88        23.2496  -46.0202  -54.6037 H         1 UNK         0.0848 
     89 H89        23.4165  -47.7429  -54.9011 H         1 UNK         0.0848 
     90 H90        23.0538  -46.6453  -56.2330 H         1 UNK         0.0848 
     91 H91        26.4650  -48.1495  -55.9395 H         1 UNK         0.3144 
     92 H92        25.6329  -49.6344  -58.9343 H         1 UNK         0.0727 
     93 H93        27.9109  -49.1064  -59.7906 H         1 UNK         0.0790 
     94 H94        28.0322  -47.7374  -58.6860 H         1 UNK         0.0790 
     95 H95        26.8502  -47.7201  -59.9870 H         1 UNK         0.0790 
     96 H96        27.9968  -49.7724  -57.2974 H         1 UNK         0.3215 
     97 H97        26.5964  -52.0349  -54.8694 H         1 UNK         0.0863 
     98 H98        28.6932  -53.2231  -55.5273 H         1 UNK         0.0808 
     99 H99        28.7684  -52.2850  -57.0177 H         1 UNK         0.0808 
    100 H100       27.4454  -53.4086  -56.7505 H         1 UNK         0.0808 
    101 H101       29.1531  -50.8052  -54.9664 H         1 UNK         0.3118 
    102 H102       28.3114  -47.8248  -53.1673 H         1 UNK         0.0546 
    103 H103       30.1038  -48.6500  -51.7078 H         1 UNK         0.0828 
    104 H104       28.6679  -49.6253  -51.4618 H         1 UNK         0.0828 
    105 H105       29.9996  -50.2679  -52.4111 H         1 UNK         0.0828 
    106 H106       30.7548  -48.8544  -54.3010 H         1 UNK         0.3005 
    107 H107       30.4489  -47.1939  -57.4377 H         1 UNK         0.1257 
    108 H108       31.2257  -45.4986  -55.7964 H         1 UNK         0.0775 
    109 H109       32.1727  -46.6924  -54.9555 H         1 UNK         0.0775 
    110 H110       33.7093  -44.1332  -58.2987 H         1 UNK         0.0840 
    111 H111       32.0102  -44.5386  -58.3554 H         1 UNK         0.0840 
    112 H112       32.4331  -48.9081  -56.2699 H         1 UNK         0.2987 
    113 H113       31.0779  -51.9690  -57.5227 H         1 UNK         0.0785 
    114 H114       33.2004  -52.0733  -58.7946 H         1 UNK         0.0798 
    115 H115       33.4364  -50.3348  -58.6035 H         1 UNK         0.0798 
    116 H116       32.0971  -50.9461  -59.5643 H         1 UNK         0.0798 
    117 H117       33.5927  -51.4803  -56.3704 H         1 UNK         0.3079 
    118 H118       32.8907  -52.8104  -53.4515 H         1 UNK         0.0794 
    119 H119       34.7352  -52.7197  -55.1245 H         1 UNK         0.0786 
    120 H120       35.2955  -52.1892  -53.5549 H         1 UNK         0.0786 
    121 H121       34.9706  -50.9981  -54.8043 H         1 UNK         0.0786 
    122 H122       33.0174  -51.2822  -51.8471 H         1 UNK         0.3032 
    123 H123       32.3752  -49.1531  -50.8943 H         1 UNK         0.1094 
    124 H124       35.3527  -48.5820  -51.4555 H         1 UNK         0.0794 
    125 H125       34.5657  -48.4098  -49.8884 H         1 UNK         0.0794 
    126 H126       34.7329  -49.9964  -50.6146 H         1 UNK         0.0794 
    127 H127       33.1643  -47.0864  -52.7592 H         1 UNK         0.3016 
@<TRIPOS>BOND
     1    1    2 1    
     2    1   67 1    
     3    1   68 1    
     4    1   69 1    
     5    2    3 2    
     6    2    4 am   BACKBONE|DICT|INTERRES
     7    4    5 1    
     8    4   70 1    
     9    5    6 1    
    10    5   65 1    
    11    5   71 1    
    12    6    7 1    
    13    6   72 1    
    14    6   73 1    
    15    7    8 1    
    16    8    9 1    
    17    8   74 1    
    18    8   75 1    
    19    9   10 ar   
    20    9   14 ar   
    21   10   11 ar   
    22   10   76 1    
    23   11   12 ar   
    24   11   48 1    
    25   12   13 ar   
    26   12   77 1    
    27   13   14 ar   
    28   13   15 1    
    29   14   78 1    
    30   15   16 1    
    31   15   79 1    
    32   15   80 1    
    33   16   17 1    
    34   17   18 1    
    35   17   81 1    
    36   17   82 1    
    37   18   19 1    
    38   18   22 1    
    39   18   83 1    
    40   19   20 am   BACKBONE|DICT|INTERRES
    41   19   21 2    
    42   20   84 1    
    43   20   85 1    
    44   22   23 am   BACKBONE|DICT|INTERRES
    45   22   86 1    
    46   23   24 2    
    47   23   25 1    
    48   25   26 1    
    49   25   27 1    
    50   25   87 1    
    51   26   88 1    
    52   26   89 1    
    53   26   90 1    
    54   27   28 am   BACKBONE|DICT|INTERRES
    55   27   91 1    
    56   28   29 2    
    57   28   30 1    
    58   30   31 1    
    59   30   32 1    
    60   30   92 1    
    61   31   93 1    
    62   31   94 1    
    63   31   95 1    
    64   32   33 am   BACKBONE|DICT|INTERRES
    65   32   96 1    
    66   33   34 2    
    67   33   35 1    
    68   35   36 1    
    69   35   37 1    
    70   35   97 1    
    71   36   98 1    
    72   36   99 1    
    73   36  100 1    
    74   37   38 am   BACKBONE|DICT|INTERRES
    75   37  101 1    
    76   38   39 2    
    77   38   40 1    
    78   40   41 1    
    79   40   42 1    
    80   40  102 1    
    81   41  103 1    
    82   41  104 1    
    83   41  105 1    
    84   42   43 am   BACKBONE|DICT|INTERRES
    85   42  106 1    
    86   43   44 2    
    87   43   45 1    
    88   45   46 1    
    89   45   49 1    
    90   45  107 1    
    91   46   47 1    
    92   46  108 1    
    93   46  109 1    
    94   47   48 1    
    95   48  110 1    
    96   48  111 1    
    97   49   50 am   BACKBONE|DICT|INTERRES
    98   49  112 1    
    99   50   51 2    
   100   50   52 1    
   101   52   53 1    
   102   52   54 1    
   103   52  113 1    
   104   53  114 1    
   105   53  115 1    
   106   53  116 1    
   107   54   55 am   BACKBONE|DICT|INTERRES
   108   54  117 1    
   109   55   56 2    
   110   55   57 1    
   111   57   58 1    
   112   57   59 1    
   113   57  118 1    
   114   58  119 1    
   115   58  120 1    
   116   58  121 1    
   117   59   60 am   BACKBONE|DICT|INTERRES
   118   59  122 1    
   119   60   61 2    
   120   60   62 1    
   121   62   63 1    
   122   62   64 1    
   123   62  123 1    
   124   63  124 1    
   125   63  125 1    
   126   63  126 1    
   127   64   65 am   BACKBONE|DICT|INTERRES
   128   64  127 1    
   129   65   66 2    
@<TRIPOS>SUBSTRUCTURE
     1 UNK         1 GROUP             0       ****    0 ROOT    
