@<TRIPOS>MOLECULE
3R134
127   129    1
SMALL
USER_CHARGES


@<TRIPOS>ATOM
      1 CA         37.9211  -46.3673  -50.7356 C.3       0 UNK        -0.1968 
      2 C          36.9675  -46.7215  -51.8667 C.2       0 UNK         0.4852 
      3 O          36.6431  -47.8955  -52.0505 O.2       0 UNK        -0.5359 
      4 N          36.5031  -45.7152  -52.6200 N.am      1 UNK        -0.4300 
      5 CA         35.5968  -45.8611  -53.7668 C.3       1 UNK         0.0863 
      6 C6         35.6977  -44.6763  -54.7680 C.3       11 UNK        -0.0953 
      7 S7         35.7844  -42.9830  -54.0762 S.3       11 UNK        -0.2369 
      8 C8         34.3085  -42.8198  -53.0103 C.3       11 UNK         0.0226 
      9 C9         32.9445  -42.9873  -53.6846 C.ar      11 UNK        -0.0699 
     10 C10        31.8378  -43.2256  -52.8650 C.ar      11 UNK        -0.0804 
     11 C11        30.5607  -43.3832  -53.4072 C.ar      11 UNK        -0.0871 
     12 C12        30.3930  -43.3068  -54.7919 C.ar      11 UNK        -0.1008 
     13 C13        31.4839  -43.0632  -55.6348 C.ar      11 UNK        -0.0735 
     14 C14        32.7537  -42.8951  -55.0705 C.ar      11 UNK        -0.0945 
     15 C15        31.3238  -43.0094  -57.1545 C.3       11 UNK         0.0169 
     16 S16        29.7809  -42.2048  -57.7081 S.3       11 UNK        -0.2669 
     17 C17        28.9920  -43.5162  -58.7108 C.3       11 UNK        -0.0850 
     18 CA         28.0904  -44.4977  -57.9018 C.3       10 UNK         0.0855 
     19 C          26.7209  -43.8835  -57.4710 C.2       10 UNK         0.5543 
     20 N          25.5909  -44.5393  -57.7077 N.am      10 UNK        -0.7343 
     21 O          26.6784  -42.8196  -56.8611 O.2       10 UNK        -0.5027 
     22 N          27.9867  -45.8277  -58.5300 N.am      10 UNK        -0.4495 
     23 C          27.5739  -46.1061  -59.7747 C.2       10 UNK         0.4903 
     24 O          27.3027  -45.2594  -60.6250 O.2       10 UNK        -0.4860 
     25 CA         27.3934  -47.5964  -60.1037 C.3       9 UNK         0.0227 
     26 CB         28.7470  -48.2547  -60.4187 C.3       9 UNK        -0.1964 
     27 N          26.7482  -48.3037  -58.9949 N.am      9 UNK        -0.4231 
     28 C          25.4365  -48.2694  -58.7236 C.2       9 UNK         0.5014 
     29 O          24.6151  -47.6998  -59.4437 O.2       9 UNK        -0.5270 
     30 CA         24.9590  -48.9230  -57.4095 C.3       8 UNK         0.0284 
     31 CB         23.5735  -49.5894  -57.5475 C.3       8 UNK        -0.1977 
     32 N          25.9310  -49.8350  -56.7911 N.am      8 UNK        -0.4342 
     33 C          26.3712  -51.0152  -57.2540 C.2       8 UNK         0.5039 
     34 O          25.9783  -51.5256  -58.3037 O.2       8 UNK        -0.5547 
     35 CA         27.4544  -51.7479  -56.4350 C.3       7 UNK         0.0281 
     36 CB         28.7393  -51.8989  -57.2679 C.3       7 UNK        -0.1963 
     37 N          27.7903  -51.0879  -55.1688 N.am      7 UNK        -0.4444 
     38 C          27.0620  -51.1478  -54.0448 C.2       7 UNK         0.5104 
     39 O          26.0485  -51.8354  -53.9221 O.2       7 UNK        -0.5100 
     40 CA         27.5087  -50.2396  -52.8808 C.3       6 UNK         0.0396 
     41 CB         28.5929  -50.9274  -52.0388 C.3       6 UNK        -0.1801 
     42 N          27.9798  -48.9233  -53.3341 N.am      6 UNK        -0.4747 
     43 C          27.2036  -48.0342  -53.9758 C.2       6 UNK         0.5012 
     44 O          26.0011  -48.2083  -54.1725 O.2       6 UNK        -0.5003 
     45 CA         27.8714  -46.7912  -54.5924 C.3       5 UNK         0.0782 
     46 C46        27.7094  -45.5194  -53.7249 C.3       11 UNK        -0.0868 
     47 S47        28.8969  -45.3511  -52.3521 S.3       11 UNK        -0.2515 
     48 C48        29.3660  -43.5963  -52.4869 C.3       11 UNK         0.0199 
     49 N          29.2452  -47.0663  -55.0319 N.am      5 UNK        -0.4607 
     50 C          29.5200  -47.7728  -56.1373 C.2       4 UNK         0.5031 
     51 O          28.6516  -48.1692  -56.9135 O.2       4 UNK        -0.5119 
     52 CA         30.9859  -48.0978  -56.4437 C.3       4 UNK         0.0263 
     53 CB         31.6860  -46.8789  -57.0603 C.3       4 UNK        -0.1967 
     54 N          31.7196  -48.5630  -55.2674 N.am      4 UNK        -0.4237 
     55 C          31.4992  -49.7385  -54.6567 C.2       3 UNK         0.4908 
     56 O          30.6490  -50.5453  -55.0289 O.2       3 UNK        -0.5102 
     57 CA         32.3401  -50.0715  -53.4075 C.3       3 UNK         0.0241 
     58 CB         33.5987  -50.8580  -53.8051 C.3       3 UNK        -0.1971 
     59 N          32.7315  -48.8925  -52.6351 N.am      3 UNK        -0.4139 
     60 C          31.8777  -48.0041  -52.1084 C.2       2 UNK         0.5016 
     61 O          30.6579  -48.1709  -52.0862 O.2       2 UNK        -0.5319 
     62 CA         32.4755  -46.6838  -51.5817 C.3       2 UNK         0.0286 
     63 CB         32.5221  -46.6847  -50.0464 C.3       2 UNK        -0.1963 
     64 N          33.8092  -46.3469  -52.1063 N.am      2 UNK        -0.4790 
     65 C          34.1366  -46.2150  -53.4030 C.2       1 UNK         0.5024 
     66 O          33.3317  -46.4024  -54.3140 O.2       1 UNK        -0.4888 
     67 H67        38.8761  -46.8718  -50.8795 H         1 UNK         0.0892 
     68 H68        38.1091  -45.2952  -50.6808 H         1 UNK         0.0892 
     69 H69        37.5066  -46.6884  -49.7804 H         1 UNK         0.0892 
     70 H70        36.7995  -44.7679  -52.4283 H         1 UNK         0.3107 
     71 H71        35.9419  -46.7394  -54.3173 H         1 UNK         0.0773 
     72 H72        34.9046  -44.7158  -55.5164 H         1 UNK         0.0680 
     73 H73        36.6160  -44.8027  -55.3434 H         1 UNK         0.0680 
     74 H74        34.3366  -41.8267  -52.5604 H         1 UNK         0.0650 
     75 H75        34.4019  -43.5235  -52.1829 H         1 UNK         0.0650 
     76 H76        31.9717  -43.2834  -51.7932 H         1 UNK         0.1397 
     77 H77        29.4072  -43.4201  -55.2143 H         1 UNK         0.1363 
     78 H78        33.5935  -42.6986  -55.7209 H         1 UNK         0.1355 
     79 H79        31.3799  -44.0243  -57.5447 H         1 UNK         0.0707 
     80 H80        32.1585  -42.4668  -57.6009 H         1 UNK         0.0707 
     81 H81        28.4121  -43.0386  -59.5026 H         1 UNK         0.1034 
     82 H82        29.7794  -44.0659  -59.2285 H         1 UNK         0.1034 
     83 H83        28.6062  -44.7066  -56.9652 H         1 UNK         0.0482 
     84 H84        25.5940  -45.3955  -58.2376 H         1 UNK         0.3460 
     85 H85        24.7182  -44.1346  -57.4072 H         1 UNK         0.3460 
     86 H86        28.1736  -46.6167  -57.9194 H         1 UNK         0.2989 
     87 H87        26.7612  -47.6774  -60.9906 H         1 UNK         0.0559 
     88 H88        29.4315  -48.2119  -59.5708 H         1 UNK         0.0848 
     89 H89        29.2358  -47.7568  -61.2571 H         1 UNK         0.0848 
     90 H90        28.6219  -49.3023  -60.6930 H         1 UNK         0.0848 
     91 H91        27.3653  -48.7124  -58.2998 H         1 UNK         0.3144 
     92 H92        24.8476  -48.0987  -56.7038 H         1 UNK         0.0727 
     93 H93        23.2479  -50.0259  -56.6032 H         1 UNK         0.0790 
     94 H94        23.5751  -50.3781  -58.3002 H         1 UNK         0.0790 
     95 H95        22.8164  -48.8624  -57.8437 H         1 UNK         0.0790 
     96 H96        26.3106  -49.5139  -55.9091 H         1 UNK         0.3215 
     97 H97        27.0708  -52.7465  -56.2151 H         1 UNK         0.0863 
     98 H98        29.1704  -50.9293  -57.5209 H         1 UNK         0.0808 
     99 H99        28.5446  -52.4243  -58.2037 H         1 UNK         0.0808 
    100 H100       29.4955  -52.4704  -56.7296 H         1 UNK         0.0808 
    101 H101       28.6650  -50.5706  -55.1512 H         1 UNK         0.3118 
    102 H102       26.6418  -50.0724  -52.2381 H         1 UNK         0.0546 
    103 H103       28.9223  -50.2932  -51.2155 H         1 UNK         0.0828 
    104 H104       29.4655  -51.1828  -52.6378 H         1 UNK         0.0828 
    105 H105       28.2165  -51.8547  -51.6051 H         1 UNK         0.0828 
    106 H106       28.9507  -48.6880  -53.1486 H         1 UNK         0.3005 
    107 H107       27.2840  -46.5916  -55.4921 H         1 UNK         0.1257 
    108 H108       26.7012  -45.4617  -53.3096 H         1 UNK         0.0775 
    109 H109       27.7873  -44.6480  -54.3728 H         1 UNK         0.0775 
    110 H110       28.5165  -43.0018  -52.8264 H         1 UNK         0.0840 
    111 H111       29.5992  -43.2289  -51.4863 H         1 UNK         0.0840 
    112 H112       29.9899  -46.7739  -54.4140 H         1 UNK         0.2987 
    113 H113       30.9970  -48.9018  -57.1828 H         1 UNK         0.0785 
    114 H114       32.7145  -47.1098  -57.3377 H         1 UNK         0.0798 
    115 H115       31.7093  -46.0382  -56.3665 H         1 UNK         0.0798 
    116 H116       31.1717  -46.5467  -57.9632 H         1 UNK         0.0798 
    117 H117       32.4020  -47.9160  -54.8785 H         1 UNK         0.3079 
    118 H118       31.7345  -50.7033  -52.7564 H         1 UNK         0.0794 
    119 H119       33.3358  -51.7581  -54.3629 H         1 UNK         0.0786 
    120 H120       34.1625  -51.1758  -52.9278 H         1 UNK         0.0786 
    121 H121       34.2633  -50.2656  -54.4355 H         1 UNK         0.0786 
    122 H122       33.7174  -48.6757  -52.5970 H         1 UNK         0.3032 
    123 H123       31.7956  -45.8937  -51.9026 H         1 UNK         0.1094 
    124 H124       33.2147  -47.4356  -49.6642 H         1 UNK         0.0794 
    125 H125       32.8275  -45.7131  -49.6575 H         1 UNK         0.0794 
    126 H126       31.5386  -46.9034  -49.6274 H         1 UNK         0.0794 
    127 H127       34.5405  -46.2104  -51.4240 H         1 UNK         0.3016 
@<TRIPOS>BOND
     1    1    2 1    
     2    1   67 1    
     3    1   68 1    
     4    1   69 1    
     5    2    3 2    
     6    2    4 am   BACKBONE|DICT|INTERRES
     7    4    5 1    
     8    4   70 1    
     9    5    6 1    
    10    5   65 1    
    11    5   71 1    
    12    6    7 1    
    13    6   72 1    
    14    6   73 1    
    15    7    8 1    
    16    8    9 1    
    17    8   74 1    
    18    8   75 1    
    19    9   10 ar   
    20    9   14 ar   
    21   10   11 ar   
    22   10   76 1    
    23   11   12 ar   
    24   11   48 1    
    25   12   13 ar   
    26   12   77 1    
    27   13   14 ar   
    28   13   15 1    
    29   14   78 1    
    30   15   16 1    
    31   15   79 1    
    32   15   80 1    
    33   16   17 1    
    34   17   18 1    
    35   17   81 1    
    36   17   82 1    
    37   18   19 1    
    38   18   22 1    
    39   18   83 1    
    40   19   20 am   BACKBONE|DICT|INTERRES
    41   19   21 2    
    42   20   84 1    
    43   20   85 1    
    44   22   23 am   BACKBONE|DICT|INTERRES
    45   22   86 1    
    46   23   24 2    
    47   23   25 1    
    48   25   26 1    
    49   25   27 1    
    50   25   87 1    
    51   26   88 1    
    52   26   89 1    
    53   26   90 1    
    54   27   28 am   BACKBONE|DICT|INTERRES
    55   27   91 1    
    56   28   29 2    
    57   28   30 1    
    58   30   31 1    
    59   30   32 1    
    60   30   92 1    
    61   31   93 1    
    62   31   94 1    
    63   31   95 1    
    64   32   33 am   BACKBONE|DICT|INTERRES
    65   32   96 1    
    66   33   34 2    
    67   33   35 1    
    68   35   36 1    
    69   35   37 1    
    70   35   97 1    
    71   36   98 1    
    72   36   99 1    
    73   36  100 1    
    74   37   38 am   BACKBONE|DICT|INTERRES
    75   37  101 1    
    76   38   39 2    
    77   38   40 1    
    78   40   41 1    
    79   40   42 1    
    80   40  102 1    
    81   41  103 1    
    82   41  104 1    
    83   41  105 1    
    84   42   43 am   BACKBONE|DICT|INTERRES
    85   42  106 1    
    86   43   44 2    
    87   43   45 1    
    88   45   46 1    
    89   45   49 1    
    90   45  107 1    
    91   46   47 1    
    92   46  108 1    
    93   46  109 1    
    94   47   48 1    
    95   48  110 1    
    96   48  111 1    
    97   49   50 am   BACKBONE|DICT|INTERRES
    98   49  112 1    
    99   50   51 2    
   100   50   52 1    
   101   52   53 1    
   102   52   54 1    
   103   52  113 1    
   104   53  114 1    
   105   53  115 1    
   106   53  116 1    
   107   54   55 am   BACKBONE|DICT|INTERRES
   108   54  117 1    
   109   55   56 2    
   110   55   57 1    
   111   57   58 1    
   112   57   59 1    
   113   57  118 1    
   114   58  119 1    
   115   58  120 1    
   116   58  121 1    
   117   59   60 am   BACKBONE|DICT|INTERRES
   118   59  122 1    
   119   60   61 2    
   120   60   62 1    
   121   62   63 1    
   122   62   64 1    
   123   62  123 1    
   124   63  124 1    
   125   63  125 1    
   126   63  126 1    
   127   64   65 am   BACKBONE|DICT|INTERRES
   128   64  127 1    
   129   65   66 2    
@<TRIPOS>SUBSTRUCTURE
     1 UNK         1 GROUP             0       ****    0 ROOT    
