@<TRIPOS>MOLECULE
3R134
127   129    1
SMALL
USER_CHARGES


@<TRIPOS>ATOM
      1 CA         36.4972  -43.8617  -49.0489 C.3       0 UNK        -0.1968 
      2 C          36.6764  -44.4354  -50.4470 C.2       0 UNK         0.4852 
      3 O          37.8067  -44.5253  -50.9300 O.2       0 UNK        -0.5359 
      4 N          35.5714  -44.8158  -51.1017 N.am      1 UNK        -0.4300 
      5 CA         35.5586  -45.4515  -52.4220 C.3       1 UNK         0.0863 
      6 C6         34.1564  -45.3448  -53.0729 C.3       11 UNK        -0.0953 
      7 S7         34.2117  -45.5016  -54.8895 S.3       11 UNK        -0.2369 
      8 C8         32.5349  -46.1015  -55.2609 C.3       11 UNK         0.0226 
      9 C9         31.4797  -45.0256  -55.0592 C.ar      11 UNK        -0.0699 
     10 C10        30.8338  -44.8858  -53.8276 C.ar      11 UNK        -0.0804 
     11 C11        29.8360  -43.9188  -53.6496 C.ar      11 UNK        -0.0871 
     12 C12        29.4975  -43.0833  -54.7200 C.ar      11 UNK        -0.1008 
     13 C13        30.1454  -43.2079  -55.9527 C.ar      11 UNK        -0.0735 
     14 C14        31.1354  -44.1798  -56.1152 C.ar      11 UNK        -0.0945 
     15 C15        29.8000  -42.2853  -57.1106 C.3       11 UNK         0.0169 
     16 S16        28.6249  -43.0663  -58.2567 S.3       11 UNK        -0.2669 
     17 C17        27.0296  -42.6225  -57.4840 C.3       11 UNK        -0.0850 
     18 CA         25.7987  -43.1775  -58.2472 C.3       10 UNK         0.0855 
     19 C          25.6249  -42.5137  -59.6469 C.2       10 UNK         0.5543 
     20 N          25.7712  -43.2396  -60.7492 N.am      10 UNK        -0.7343 
     21 O          25.3415  -41.3209  -59.7281 O.2       10 UNK        -0.5027 
     22 N          25.7921  -44.6475  -58.2363 N.am      10 UNK        -0.4495 
     23 C          24.7422  -45.4241  -58.5306 C.2       10 UNK         0.4903 
     24 O          23.6284  -44.9801  -58.8125 O.2       10 UNK        -0.4860 
     25 CA         24.9418  -46.9507  -58.4698 C.3       9 UNK         0.0227 
     26 CB         24.3900  -47.6616  -59.7228 C.3       9 UNK        -0.1964 
     27 N          26.3141  -47.3796  -58.1711 N.am      9 UNK        -0.4231 
     28 C          27.4088  -47.3098  -58.9437 C.2       9 UNK         0.5014 
     29 O          27.4337  -46.8024  -60.0652 O.2       9 UNK        -0.5270 
     30 CA         28.7004  -47.9083  -58.3538 C.3       8 UNK         0.0284 
     31 CB         29.4690  -46.8494  -57.5501 C.3       8 UNK        -0.1977 
     32 N          28.4514  -49.0740  -57.5001 N.am      8 UNK        -0.4342 
     33 C          27.9797  -50.2511  -57.9381 C.2       8 UNK         0.5039 
     34 O          27.8006  -50.5227  -59.1258 O.2       8 UNK        -0.5547 
     35 CA         27.6128  -51.2878  -56.8659 C.3       7 UNK         0.0281 
     36 CB         28.8547  -52.0665  -56.4002 C.3       7 UNK        -0.1963 
     37 N          26.9500  -50.6569  -55.7212 N.am      7 UNK        -0.4444 
     38 C          25.6624  -50.2794  -55.7120 C.2       7 UNK         0.5104 
     39 O          24.8808  -50.4910  -56.6388 O.2       7 UNK        -0.5100 
     40 CA         25.1546  -49.5303  -54.4657 C.3       6 UNK         0.0396 
     41 CB         24.5321  -50.5173  -53.4657 C.3       6 UNK        -0.1801 
     42 N          26.1951  -48.7504  -53.7907 N.am      6 UNK        -0.4747 
     43 C          26.7635  -47.6407  -54.2866 C.2       6 UNK         0.5012 
     44 O          26.4372  -47.1282  -55.3554 O.2       6 UNK        -0.5003 
     45 CA         27.9355  -47.0430  -53.4825 C.3       5 UNK         0.0782 
     46 C46        27.4230  -45.9763  -52.4836 C.3       11 UNK        -0.0868 
     47 S47        28.7467  -45.2830  -51.4356 S.3       11 UNK        -0.2515 
     48 C48        29.1498  -43.7263  -52.2987 C.3       11 UNK         0.0199 
     49 N          28.7498  -48.0842  -52.8396 N.am      5 UNK        -0.4607 
     50 C          29.4405  -49.0158  -53.5058 C.2       4 UNK         0.5031 
     51 O          29.4330  -49.1195  -54.7355 O.2       4 UNK        -0.5119 
     52 CA         30.1997  -50.0486  -52.6600 C.3       4 UNK         0.0263 
     53 CB         29.3189  -51.2844  -52.4132 C.3       4 UNK        -0.1967 
     54 N          31.4279  -50.4591  -53.3396 N.am      4 UNK        -0.4237 
     55 C          32.5279  -49.7005  -53.4023 C.2       3 UNK         0.4908 
     56 O          32.6713  -48.6525  -52.7681 O.2       3 UNK        -0.5102 
     57 CA         33.6305  -50.1838  -54.3546 C.3       3 UNK         0.0241 
     58 CB         33.1796  -50.0470  -55.8212 C.3       3 UNK        -0.1971 
     59 N          34.8333  -49.3763  -54.1593 N.am      3 UNK        -0.4139 
     60 C          36.0294  -49.8308  -53.7696 C.2       2 UNK         0.5016 
     61 O          36.2862  -51.0222  -53.5896 O.2       2 UNK        -0.5319 
     62 CA         37.1409  -48.7853  -53.5518 C.3       2 UNK         0.0286 
     63 CB         38.1593  -48.8379  -54.7030 C.3       2 UNK        -0.1963 
     64 N          36.6434  -47.4106  -53.4230 N.am      2 UNK        -0.4790 
     65 C          36.0435  -46.9158  -52.3319 C.2       1 UNK         0.5024 
     66 O          35.8537  -47.5702  -51.3034 O.2       1 UNK        -0.4888 
     67 H67        37.0330  -44.4716  -48.3221 H         1 UNK         0.0892 
     68 H68        36.8965  -42.8487  -49.0047 H         1 UNK         0.0892 
     69 H69        35.4487  -43.8255  -48.7535 H         1 UNK         0.0892 
     70 H70        34.6762  -44.7511  -50.6389 H         1 UNK         0.3107 
     71 H71        36.2672  -44.8994  -53.0442 H         1 UNK         0.0773 
     72 H72        33.7170  -44.3685  -52.8609 H         1 UNK         0.0680 
     73 H73        33.4712  -46.0813  -52.6495 H         1 UNK         0.0680 
     74 H74        32.3015  -46.9721  -54.6514 H         1 UNK         0.0650 
     75 H75        32.5168  -46.4457  -56.2956 H         1 UNK         0.0650 
     76 H76        31.1078  -45.5357  -53.0081 H         1 UNK         0.1397 
     77 H77        28.7385  -42.3237  -54.5917 H         1 UNK         0.1363 
     78 H78        31.6349  -44.2814  -57.0690 H         1 UNK         0.1355 
     79 H79        29.3991  -41.3376  -56.7476 H         1 UNK         0.0707 
     80 H80        30.7095  -42.0369  -57.6599 H         1 UNK         0.0707 
     81 H81        27.0230  -42.9976  -56.4595 H         1 UNK         0.1034 
     82 H82        26.9652  -41.5357  -57.4022 H         1 UNK         0.1034 
     83 H83        24.9193  -42.8704  -57.6778 H         1 UNK         0.0482 
     84 H84        25.6533  -42.8053  -61.6507 H         1 UNK         0.3460 
     85 H85        26.0215  -44.2140  -60.6822 H         1 UNK         0.3460 
     86 H86        26.6771  -45.0900  -58.0394 H         1 UNK         0.2989 
     87 H87        24.3487  -47.2894  -57.6191 H         1 UNK         0.0559 
     88 H88        24.8873  -47.3273  -60.6335 H         1 UNK         0.0848 
     89 H89        23.3244  -47.4652  -59.8469 H         1 UNK         0.0848 
     90 H90        24.5122  -48.7425  -59.6496 H         1 UNK         0.0848 
     91 H91        26.4479  -47.6911  -57.2133 H         1 UNK         0.3144 
     92 H92        29.3292  -48.2306  -59.1864 H         1 UNK         0.0727 
     93 H93        30.3916  -47.2594  -57.1405 H         1 UNK         0.0790 
     94 H94        28.8802  -46.4584  -56.7196 H         1 UNK         0.0790 
     95 H95        29.7412  -46.0034  -58.1824 H         1 UNK         0.0790 
     96 H96        28.6531  -48.9741  -56.5084 H         1 UNK         0.3215 
     97 H97        26.9210  -52.0030  -57.3171 H         1 UNK         0.0863 
     98 H98        28.5935  -52.8252  -55.6626 H         1 UNK         0.0808 
     99 H99        29.6098  -51.4145  -55.9621 H         1 UNK         0.0808 
    100 H100       29.3232  -52.5816  -57.2399 H         1 UNK         0.0808 
    101 H101       27.5373  -50.3933  -54.9430 H         1 UNK         0.3118 
    102 H102       24.3739  -48.8398  -54.7925 H         1 UNK         0.0546 
    103 H103       25.2671  -51.2282  -53.0860 H         1 UNK         0.0828 
    104 H104       23.7334  -51.0945  -53.9340 H         1 UNK         0.0828 
    105 H105       24.0949  -49.9971  -52.6134 H         1 UNK         0.0828 
    106 H106       26.5238  -49.0987  -52.9015 H         1 UNK         0.3005 
    107 H107       28.5775  -46.5398  -54.2085 H         1 UNK         0.1257 
    108 H108       26.6725  -46.4065  -51.8175 H         1 UNK         0.0775 
    109 H109       26.9240  -45.1638  -53.0157 H         1 UNK         0.0775 
    110 H110       28.2361  -43.1398  -52.4074 H         1 UNK         0.0840 
    111 H111       29.8132  -43.1412  -51.6607 H         1 UNK         0.0840 
    112 H112       28.8039  -48.0470  -51.8316 H         1 UNK         0.2987 
    113 H113       30.4580  -49.6028  -51.6968 H         1 UNK         0.0785 
    114 H114       29.8369  -52.0218  -51.7996 H         1 UNK         0.0798 
    115 H115       29.0280  -51.7710  -53.3446 H         1 UNK         0.0798 
    116 H116       28.4030  -51.0151  -51.8856 H         1 UNK         0.0798 
    117 H117       31.3719  -51.2874  -53.9135 H         1 UNK         0.3079 
    118 H118       33.8299  -51.2349  -54.1357 H         1 UNK         0.0794 
    119 H119       32.2993  -50.6569  -56.0274 H         1 UNK         0.0786 
    120 H120       33.9629  -50.3731  -56.5056 H         1 UNK         0.0786 
    121 H121       32.9258  -49.0169  -56.0731 H         1 UNK         0.0786 
    122 H122       34.6966  -48.3757  -54.1920 H         1 UNK         0.3032 
    123 H123       37.6564  -49.0545  -52.6266 H         1 UNK         0.1094 
    124 H124       38.9930  -48.1577  -54.5275 H         1 UNK         0.0794 
    125 H125       38.5787  -49.8396  -54.8083 H         1 UNK         0.0794 
    126 H126       37.7036  -48.5739  -55.6582 H         1 UNK         0.0794 
    127 H127       36.7476  -46.8130  -54.2318 H         1 UNK         0.3016 
@<TRIPOS>BOND
     1    1    2 1    
     2    1   67 1    
     3    1   68 1    
     4    1   69 1    
     5    2    3 2    
     6    2    4 am   BACKBONE|DICT|INTERRES
     7    4    5 1    
     8    4   70 1    
     9    5    6 1    
    10    5   65 1    
    11    5   71 1    
    12    6    7 1    
    13    6   72 1    
    14    6   73 1    
    15    7    8 1    
    16    8    9 1    
    17    8   74 1    
    18    8   75 1    
    19    9   10 ar   
    20    9   14 ar   
    21   10   11 ar   
    22   10   76 1    
    23   11   12 ar   
    24   11   48 1    
    25   12   13 ar   
    26   12   77 1    
    27   13   14 ar   
    28   13   15 1    
    29   14   78 1    
    30   15   16 1    
    31   15   79 1    
    32   15   80 1    
    33   16   17 1    
    34   17   18 1    
    35   17   81 1    
    36   17   82 1    
    37   18   19 1    
    38   18   22 1    
    39   18   83 1    
    40   19   20 am   BACKBONE|DICT|INTERRES
    41   19   21 2    
    42   20   84 1    
    43   20   85 1    
    44   22   23 am   BACKBONE|DICT|INTERRES
    45   22   86 1    
    46   23   24 2    
    47   23   25 1    
    48   25   26 1    
    49   25   27 1    
    50   25   87 1    
    51   26   88 1    
    52   26   89 1    
    53   26   90 1    
    54   27   28 am   BACKBONE|DICT|INTERRES
    55   27   91 1    
    56   28   29 2    
    57   28   30 1    
    58   30   31 1    
    59   30   32 1    
    60   30   92 1    
    61   31   93 1    
    62   31   94 1    
    63   31   95 1    
    64   32   33 am   BACKBONE|DICT|INTERRES
    65   32   96 1    
    66   33   34 2    
    67   33   35 1    
    68   35   36 1    
    69   35   37 1    
    70   35   97 1    
    71   36   98 1    
    72   36   99 1    
    73   36  100 1    
    74   37   38 am   BACKBONE|DICT|INTERRES
    75   37  101 1    
    76   38   39 2    
    77   38   40 1    
    78   40   41 1    
    79   40   42 1    
    80   40  102 1    
    81   41  103 1    
    82   41  104 1    
    83   41  105 1    
    84   42   43 am   BACKBONE|DICT|INTERRES
    85   42  106 1    
    86   43   44 2    
    87   43   45 1    
    88   45   46 1    
    89   45   49 1    
    90   45  107 1    
    91   46   47 1    
    92   46  108 1    
    93   46  109 1    
    94   47   48 1    
    95   48  110 1    
    96   48  111 1    
    97   49   50 am   BACKBONE|DICT|INTERRES
    98   49  112 1    
    99   50   51 2    
   100   50   52 1    
   101   52   53 1    
   102   52   54 1    
   103   52  113 1    
   104   53  114 1    
   105   53  115 1    
   106   53  116 1    
   107   54   55 am   BACKBONE|DICT|INTERRES
   108   54  117 1    
   109   55   56 2    
   110   55   57 1    
   111   57   58 1    
   112   57   59 1    
   113   57  118 1    
   114   58  119 1    
   115   58  120 1    
   116   58  121 1    
   117   59   60 am   BACKBONE|DICT|INTERRES
   118   59  122 1    
   119   60   61 2    
   120   60   62 1    
   121   62   63 1    
   122   62   64 1    
   123   62  123 1    
   124   63  124 1    
   125   63  125 1    
   126   63  126 1    
   127   64   65 am   BACKBONE|DICT|INTERRES
   128   64  127 1    
   129   65   66 2    
@<TRIPOS>SUBSTRUCTURE
     1 UNK         1 GROUP             0       ****    0 ROOT    
