@<TRIPOS>MOLECULE
3R134
127   129    1
SMALL
USER_CHARGES


@<TRIPOS>ATOM
      1 CA         33.7617  -44.7471  -49.0385 C.3       0 UNK        -0.1968 
      2 C          33.7068  -45.2799  -50.4624 C.2       0 UNK         0.4852 
      3 O          32.6161  -45.4939  -50.9869 O.2       0 UNK        -0.5359 
      4 N          34.8766  -45.5096  -51.0771 N.am      1 UNK        -0.4300 
      5 CA         35.0852  -45.9546  -52.4680 C.3       1 UNK         0.0863 
      6 C6         34.5002  -44.9895  -53.5359 C.3       11 UNK        -0.0953 
      7 S7         34.9974  -43.2497  -53.3029 S.3       11 UNK        -0.2369 
      8 C8         34.2339  -42.4595  -54.7619 C.3       11 UNK         0.0226 
      9 C9         32.7304  -42.7003  -54.8863 C.ar      11 UNK        -0.0699 
     10 C10        31.8868  -42.5989  -53.7744 C.ar      11 UNK        -0.0804 
     11 C11        30.5153  -42.8458  -53.8898 C.ar      11 UNK        -0.0871 
     12 C12        29.9812  -43.1632  -55.1432 C.ar      11 UNK        -0.1008 
     13 C13        30.8106  -43.2615  -56.2647 C.ar      11 UNK        -0.0735 
     14 C14        32.1820  -43.0273  -56.1301 C.ar      11 UNK        -0.0945 
     15 C15        30.2319  -43.6697  -57.6099 C.3       11 UNK         0.0169 
     16 S16        29.2106  -42.3631  -58.3487 S.3       11 UNK        -0.2669 
     17 C17        28.5701  -43.2411  -59.8173 C.3       11 UNK        -0.0850 
     18 CA         27.1306  -43.7892  -59.6153 C.3       10 UNK         0.0855 
     19 C          26.5029  -44.2527  -60.9650 C.2       10 UNK         0.5543 
     20 N          26.0080  -45.4777  -61.0999 N.am      10 UNK        -0.7343 
     21 O          26.4551  -43.4748  -61.9147 O.2       10 UNK        -0.5027 
     22 N          27.0725  -44.7994  -58.5440 N.am      10 UNK        -0.4495 
     23 C          25.9867  -45.0695  -57.8096 C.2       10 UNK         0.4903 
     24 O          24.9284  -44.4445  -57.8985 O.2       10 UNK        -0.4860 
     25 CA         26.1090  -46.2446  -56.8183 C.3       9 UNK         0.0227 
     26 CB         24.7436  -46.7197  -56.2801 C.3       9 UNK        -0.1964 
     27 N          26.8701  -47.3864  -57.3433 N.am      9 UNK        -0.4231 
     28 C          26.6280  -48.0907  -58.4586 C.2       9 UNK         0.5014 
     29 O          25.7477  -47.8124  -59.2739 O.2       9 UNK        -0.5270 
     30 CA         27.5164  -49.3226  -58.7042 C.3       8 UNK         0.0284 
     31 CB         28.8498  -48.9362  -59.3630 C.3       8 UNK        -0.1977 
     32 N          27.7528  -50.1103  -57.4869 N.am      8 UNK        -0.4342 
     33 C          26.8103  -50.8768  -56.9166 C.2       8 UNK         0.5039 
     34 O          25.6551  -50.9636  -57.3357 O.2       8 UNK        -0.5547 
     35 CA         27.2095  -51.7015  -55.6878 C.3       7 UNK         0.0281 
     36 CB         28.1679  -52.8455  -56.0664 C.3       7 UNK        -0.1963 
     37 N          27.8093  -50.8631  -54.6470 N.am      7 UNK        -0.4444 
     38 C          27.2793  -50.6927  -53.4277 C.2       7 UNK         0.5104 
     39 O          26.2104  -51.1894  -53.0692 O.2       7 UNK        -0.5100 
     40 CA         28.0697  -49.8552  -52.4086 C.3       6 UNK         0.0396 
     41 CB         28.9884  -50.7572  -51.5693 C.3       6 UNK        -0.1801 
     42 N          28.8522  -48.7613  -52.9876 N.am      6 UNK        -0.4747 
     43 C          28.3150  -47.6277  -53.4637 C.2       6 UNK         0.5012 
     44 O          27.1038  -47.4506  -53.5932 O.2       6 UNK        -0.5003 
     45 CA         29.2888  -46.4991  -53.8480 C.3       5 UNK         0.0782 
     46 C46        29.6914  -45.6394  -52.6219 C.3       11 UNK        -0.0868 
     47 S47        28.5498  -44.2286  -52.4084 S.3       11 UNK        -0.2515 
     48 C48        29.6317  -42.7742  -52.6467 C.3       11 UNK         0.0199 
     49 N          30.4505  -47.0318  -54.5586 N.am      5 UNK        -0.4607 
     50 C          30.4856  -47.1769  -55.8882 C.2       4 UNK         0.5031 
     51 O          29.5567  -46.8691  -56.6306 O.2       4 UNK        -0.5119 
     52 CA         31.7340  -47.8365  -56.4928 C.3       4 UNK         0.0263 
     53 CB         32.8847  -46.8265  -56.5929 C.3       4 UNK        -0.1967 
     54 N          32.1543  -49.0181  -55.7383 N.am      4 UNK        -0.4237 
     55 C          31.3761  -50.0959  -55.5560 C.2       3 UNK         0.4908 
     56 O          30.2598  -50.2210  -56.0632 O.2       3 UNK        -0.5102 
     57 CA         31.8890  -51.2075  -54.6256 C.3       3 UNK         0.0241 
     58 CB         32.4940  -52.3531  -55.4516 C.3       3 UNK        -0.1971 
     59 N          32.8582  -50.7755  -53.6124 N.am      3 UNK        -0.4139 
     60 C          32.6780  -49.8137  -52.6947 C.2       2 UNK         0.5016 
     61 O          31.6598  -49.1217  -52.6192 O.2       2 UNK        -0.5319 
     62 CA         33.8311  -49.5621  -51.7014 C.3       2 UNK         0.0286 
     63 CB         35.0565  -50.4854  -51.8966 C.3       2 UNK        -0.1963 
     64 N          34.2563  -48.1578  -51.6930 N.am      2 UNK        -0.4790 
     65 C          34.6604  -47.4199  -52.7396 C.2       1 UNK         0.5024 
     66 O          34.7352  -47.8634  -53.8877 O.2       1 UNK        -0.4888 
     67 H67        34.7857  -44.6193  -48.6880 H         1 UNK         0.0892 
     68 H68        33.2616  -43.7807  -48.9829 H         1 UNK         0.0892 
     69 H69        33.2537  -45.4329  -48.3611 H         1 UNK         0.0892 
     70 H70        35.7300  -45.3248  -50.5681 H         1 UNK         0.3107 
     71 H71        36.1679  -45.9526  -52.6023 H         1 UNK         0.0773 
     72 H72        33.4106  -45.0474  -53.5392 H         1 UNK         0.0680 
     73 H73        34.8315  -45.2851  -54.5325 H         1 UNK         0.0680 
     74 H74        34.7533  -42.8178  -55.6521 H         1 UNK         0.0650 
     75 H75        34.4126  -41.3849  -54.7110 H         1 UNK         0.0650 
     76 H76        32.3067  -42.3494  -52.8097 H         1 UNK         0.1397 
     77 H77        28.9214  -43.3528  -55.2450 H         1 UNK         0.1363 
     78 H78        32.8257  -43.1101  -56.9950 H         1 UNK         0.1355 
     79 H79        31.0247  -43.9488  -58.3056 H         1 UNK         0.0707 
     80 H80        29.6148  -44.5531  -57.4729 H         1 UNK         0.0707 
     81 H81        28.5921  -42.5254  -60.6415 H         1 UNK         0.1034 
     82 H82        29.2517  -44.0433  -60.1059 H         1 UNK         0.1034 
     83 H83        26.5167  -42.9435  -59.2991 H         1 UNK         0.0482 
     84 H84        25.6047  -45.7450  -61.9835 H         1 UNK         0.3460 
     85 H85        25.9970  -46.1356  -60.3280 H         1 UNK         0.3460 
     86 H86        27.8921  -45.3749  -58.4182 H         1 UNK         0.2989 
     87 H87        26.6811  -45.8633  -55.9718 H         1 UNK         0.0559 
     88 H88        24.1004  -47.0875  -57.0803 H         1 UNK         0.0848 
     89 H89        24.2137  -45.9083  -55.7800 H         1 UNK         0.0848 
     90 H90        24.8652  -47.5215  -55.5513 H         1 UNK         0.0848 
     91 H91        27.7158  -47.6109  -56.8290 H         1 UNK         0.3144 
     92 H92        26.9846  -49.9621  -59.4125 H         1 UNK         0.0727 
     93 H93        29.4564  -48.3021  -58.7211 H         1 UNK         0.0790 
     94 H94        28.6795  -48.3886  -60.2909 H         1 UNK         0.0790 
     95 H95        29.4386  -49.8193  -59.6115 H         1 UNK         0.0790 
     96 H96        28.6896  -50.0994  -57.0879 H         1 UNK         0.3215 
     97 H97        26.2941  -52.1680  -55.3173 H         1 UNK         0.0863 
     98 H98        28.4119  -53.4583  -55.1986 H         1 UNK         0.0808 
     99 H99        29.1033  -52.4834  -56.4913 H         1 UNK         0.0808 
    100 H100       27.7111  -53.5026  -56.8075 H         1 UNK         0.0808 
    101 H101       28.6846  -50.4069  -54.8816 H         1 UNK         0.3118 
    102 H102       27.3414  -49.4103  -51.7268 H         1 UNK         0.0546 
    103 H103       28.4168  -51.5434  -51.0742 H         1 UNK         0.0828 
    104 H104       29.4988  -50.1896  -50.7911 H         1 UNK         0.0828 
    105 H105       29.7478  -51.2440  -52.1796 H         1 UNK         0.0828 
    106 H106       29.8654  -48.8324  -52.9023 H         1 UNK         0.3005 
    107 H107       28.7470  -45.8510  -54.5407 H         1 UNK         0.1257 
    108 H108       30.7023  -45.2522  -52.7507 H         1 UNK         0.0775 
    109 H109       29.7281  -46.2225  -51.6994 H         1 UNK         0.0775 
    110 H110       29.0105  -41.8798  -52.7074 H         1 UNK         0.0840 
    111 H111       30.2432  -42.6617  -51.7499 H         1 UNK         0.0840 
    112 H112       31.2111  -47.3885  -53.9939 H         1 UNK         0.2987 
    113 H113       31.4858  -48.1654  -57.5034 H         1 UNK         0.0785 
    114 H114       32.6061  -45.9810  -57.2231 H         1 UNK         0.0798 
    115 H115       33.7782  -47.2765  -57.0257 H         1 UNK         0.0798 
    116 H116       33.1469  -46.4279  -55.6150 H         1 UNK         0.0798 
    117 H117       33.0469  -48.9705  -55.2640 H         1 UNK         0.3079 
    118 H118       31.0202  -51.6003  -54.0959 H         1 UNK         0.0794 
    119 H119       33.3935  -52.0372  -55.9819 H         1 UNK         0.0786 
    120 H120       31.7852  -52.7138  -56.1987 H         1 UNK         0.0786 
    121 H121       32.7552  -53.2035  -54.8214 H         1 UNK         0.0786 
    122 H122       33.7405  -51.2664  -53.6035 H         1 UNK         0.3032 
    123 H123       33.4163  -49.7669  -50.7130 H         1 UNK         0.1094 
    124 H124       35.8133  -50.2906  -51.1365 H         1 UNK         0.0794 
    125 H125       34.7833  -51.5373  -51.8024 H         1 UNK         0.0794 
    126 H126       35.5298  -50.3447  -52.8693 H         1 UNK         0.0794 
    127 H127       34.1746  -47.6814  -50.8061 H         1 UNK         0.3016 
@<TRIPOS>BOND
     1    1    2 1    
     2    1   67 1    
     3    1   68 1    
     4    1   69 1    
     5    2    3 2    
     6    2    4 am   BACKBONE|DICT|INTERRES
     7    4    5 1    
     8    4   70 1    
     9    5    6 1    
    10    5   65 1    
    11    5   71 1    
    12    6    7 1    
    13    6   72 1    
    14    6   73 1    
    15    7    8 1    
    16    8    9 1    
    17    8   74 1    
    18    8   75 1    
    19    9   10 ar   
    20    9   14 ar   
    21   10   11 ar   
    22   10   76 1    
    23   11   12 ar   
    24   11   48 1    
    25   12   13 ar   
    26   12   77 1    
    27   13   14 ar   
    28   13   15 1    
    29   14   78 1    
    30   15   16 1    
    31   15   79 1    
    32   15   80 1    
    33   16   17 1    
    34   17   18 1    
    35   17   81 1    
    36   17   82 1    
    37   18   19 1    
    38   18   22 1    
    39   18   83 1    
    40   19   20 am   BACKBONE|DICT|INTERRES
    41   19   21 2    
    42   20   84 1    
    43   20   85 1    
    44   22   23 am   BACKBONE|DICT|INTERRES
    45   22   86 1    
    46   23   24 2    
    47   23   25 1    
    48   25   26 1    
    49   25   27 1    
    50   25   87 1    
    51   26   88 1    
    52   26   89 1    
    53   26   90 1    
    54   27   28 am   BACKBONE|DICT|INTERRES
    55   27   91 1    
    56   28   29 2    
    57   28   30 1    
    58   30   31 1    
    59   30   32 1    
    60   30   92 1    
    61   31   93 1    
    62   31   94 1    
    63   31   95 1    
    64   32   33 am   BACKBONE|DICT|INTERRES
    65   32   96 1    
    66   33   34 2    
    67   33   35 1    
    68   35   36 1    
    69   35   37 1    
    70   35   97 1    
    71   36   98 1    
    72   36   99 1    
    73   36  100 1    
    74   37   38 am   BACKBONE|DICT|INTERRES
    75   37  101 1    
    76   38   39 2    
    77   38   40 1    
    78   40   41 1    
    79   40   42 1    
    80   40  102 1    
    81   41  103 1    
    82   41  104 1    
    83   41  105 1    
    84   42   43 am   BACKBONE|DICT|INTERRES
    85   42  106 1    
    86   43   44 2    
    87   43   45 1    
    88   45   46 1    
    89   45   49 1    
    90   45  107 1    
    91   46   47 1    
    92   46  108 1    
    93   46  109 1    
    94   47   48 1    
    95   48  110 1    
    96   48  111 1    
    97   49   50 am   BACKBONE|DICT|INTERRES
    98   49  112 1    
    99   50   51 2    
   100   50   52 1    
   101   52   53 1    
   102   52   54 1    
   103   52  113 1    
   104   53  114 1    
   105   53  115 1    
   106   53  116 1    
   107   54   55 am   BACKBONE|DICT|INTERRES
   108   54  117 1    
   109   55   56 2    
   110   55   57 1    
   111   57   58 1    
   112   57   59 1    
   113   57  118 1    
   114   58  119 1    
   115   58  120 1    
   116   58  121 1    
   117   59   60 am   BACKBONE|DICT|INTERRES
   118   59  122 1    
   119   60   61 2    
   120   60   62 1    
   121   62   63 1    
   122   62   64 1    
   123   62  123 1    
   124   63  124 1    
   125   63  125 1    
   126   63  126 1    
   127   64   65 am   BACKBONE|DICT|INTERRES
   128   64  127 1    
   129   65   66 2    
@<TRIPOS>SUBSTRUCTURE
     1 UNK         1 GROUP             0       ****    0 ROOT    
