@<TRIPOS>MOLECULE
3R134
127   129    1
SMALL
USER_CHARGES


@<TRIPOS>ATOM
      1 CA         36.9050  -51.6397  -54.0667 C.3       0 UNK        -0.1968 
      2 C          35.8294  -50.5748  -53.9224 C.2       0 UNK         0.4852 
      3 O          35.1087  -50.5692  -52.9228 O.2       0 UNK        -0.5359 
      4 N          35.7263  -49.6615  -54.9005 N.am      1 UNK        -0.4300 
      5 CA         34.7267  -48.5836  -54.9735 C.3       1 UNK         0.0863 
      6 C6         34.8440  -47.7947  -56.3038 C.3       11 UNK        -0.0953 
      7 S7         33.2772  -46.9938  -56.7924 S.3       11 UNK        -0.2369 
      8 C8         33.6239  -45.2305  -56.4899 C.3       11 UNK         0.0226 
      9 C9         32.4725  -44.5649  -55.7512 C.ar      11 UNK        -0.0699 
     10 C10        32.5565  -44.3450  -54.3741 C.ar      11 UNK        -0.0804 
     11 C11        31.4912  -43.7706  -53.6771 C.ar      11 UNK        -0.0871 
     12 C12        30.3438  -43.3811  -54.3756 C.ar      11 UNK        -0.1008 
     13 C13        30.2545  -43.5771  -55.7573 C.ar      11 UNK        -0.0735 
     14 C14        31.3214  -44.1711  -56.4394 C.ar      11 UNK        -0.0945 
     15 C15        29.0157  -43.1247  -56.5141 C.3       11 UNK         0.0169 
     16 S16        27.6478  -44.3125  -56.3529 S.3       11 UNK        -0.2669 
     17 C17        26.4370  -43.5162  -57.4631 C.3       11 UNK        -0.0850 
     18 CA         24.9927  -44.0673  -57.3273 C.3       10 UNK         0.0855 
     19 C          24.0139  -43.2526  -58.2260 C.2       10 UNK         0.5543 
     20 N          23.3888  -43.8359  -59.2438 N.am      10 UNK        -0.7343 
     21 O          23.8136  -42.0641  -57.9879 O.2       10 UNK        -0.5027 
     22 N          24.9197  -45.5221  -57.5417 N.am      10 UNK        -0.4495 
     23 C          23.9023  -46.2872  -57.1158 C.2       10 UNK         0.4903 
     24 O          23.0051  -45.8665  -56.3838 O.2       10 UNK        -0.4860 
     25 CA         23.8637  -47.7636  -57.5681 C.3       9 UNK         0.0227 
     26 CB         22.4226  -48.2923  -57.7294 C.3       9 UNK        -0.1964 
     27 N          24.6565  -48.0484  -58.7695 N.am      9 UNK        -0.4231 
     28 C          24.5067  -47.5243  -59.9973 C.2       9 UNK         0.5014 
     29 O          23.6088  -46.7362  -60.3021 O.2       9 UNK        -0.5270 
     30 CA         25.5921  -47.9065  -61.0301 C.3       8 UNK         0.0284 
     31 CB         25.6114  -46.9671  -62.2551 C.3       8 UNK        -0.1977 
     32 N          26.9302  -48.0044  -60.4234 N.am      8 UNK        -0.4342 
     33 C          27.5529  -47.0395  -59.7301 C.2       8 UNK         0.5039 
     34 O          27.1218  -45.8929  -59.6107 O.2       8 UNK        -0.5547 
     35 CA         28.8010  -47.4524  -58.9343 C.3       7 UNK         0.0281 
     36 CB         29.9512  -46.4566  -59.1531 C.3       7 UNK        -0.1963 
     37 N          28.4793  -47.5136  -57.5049 N.am      7 UNK        -0.4444 
     38 C          27.6110  -48.3717  -56.9506 C.2       7 UNK         0.5104 
     39 O          27.0526  -49.2715  -57.5821 O.2       7 UNK        -0.5100 
     40 CA         27.2952  -48.1798  -55.4594 C.3       6 UNK         0.0396 
     41 CB         26.6735  -49.4336  -54.8111 C.3       6 UNK        -0.1801 
     42 N          28.4904  -47.7781  -54.7221 N.am      6 UNK        -0.4747 
     43 C          28.5039  -47.0615  -53.5933 C.2       6 UNK         0.5012 
     44 O          27.4823  -46.6365  -53.0496 O.2       6 UNK        -0.5003 
     45 CA         29.8865  -46.8236  -52.9436 C.3       5 UNK         0.0782 
     46 C46        29.8145  -45.7670  -51.8084 C.3       11 UNK        -0.0868 
     47 S47        31.4646  -45.1917  -51.2900 S.3       11 UNK        -0.2515 
     48 C48        31.5790  -43.5957  -52.1669 C.3       11 UNK         0.0199 
     49 N          30.4699  -48.0850  -52.4683 N.am      5 UNK        -0.4607 
     50 C          30.9656  -49.0641  -53.2347 C.2       4 UNK         0.5031 
     51 O          31.0207  -49.0061  -54.4650 O.2       4 UNK        -0.5119 
     52 CA         31.4688  -50.3193  -52.5000 C.3       4 UNK         0.0263 
     53 CB         31.8043  -51.4722  -53.4648 C.3       4 UNK        -0.1967 
     54 N          32.6494  -50.0270  -51.6888 N.am      4 UNK        -0.4237 
     55 C          32.6360  -49.4863  -50.4628 C.2       3 UNK         0.4908 
     56 O          31.6045  -49.1594  -49.8737 O.2       3 UNK        -0.5102 
     57 CA         33.9972  -49.2686  -49.7863 C.3       3 UNK         0.0241 
     58 CB         34.6008  -50.6070  -49.3275 C.3       3 UNK        -0.1971 
     59 N          34.9184  -48.6069  -50.7089 N.am      3 UNK        -0.4139 
     60 C          35.2517  -47.3096  -50.6583 C.2       2 UNK         0.5016 
     61 O          34.9447  -46.5566  -49.7331 O.2       2 UNK        -0.5319 
     62 CA         36.0630  -46.7414  -51.8420 C.3       2 UNK         0.0286 
     63 CB         37.5573  -46.6737  -51.4879 C.3       2 UNK        -0.1963 
     64 N          35.9010  -47.4869  -53.0960 N.am      2 UNK        -0.4790 
     65 C          34.7379  -47.6425  -53.7478 C.2       1 UNK         0.5024 
     66 O          33.6906  -47.1197  -53.3794 O.2       1 UNK        -0.4888 
     67 H67        37.4760  -51.5228  -54.9875 H         1 UNK         0.0892 
     68 H68        37.5980  -51.5875  -53.2275 H         1 UNK         0.0892 
     69 H69        36.4506  -52.6300  -54.0720 H         1 UNK         0.0892 
     70 H70        36.3595  -49.7183  -55.6857 H         1 UNK         0.3107 
     71 H71        33.7570  -49.0859  -54.9648 H         1 UNK         0.0773 
     72 H72        35.0910  -48.4795  -57.1166 H         1 UNK         0.0680 
     73 H73        35.6627  -47.0736  -56.2734 H         1 UNK         0.0680 
     74 H74        33.7931  -44.7312  -57.4448 H         1 UNK         0.0650 
     75 H75        34.5445  -45.1145  -55.9164 H         1 UNK         0.0650 
     76 H76        33.4422  -44.6467  -53.8330 H         1 UNK         0.1397 
     77 H77        29.5144  -42.9316  -53.8465 H         1 UNK         0.1363 
     78 H78        31.2609  -44.3280  -57.5069 H         1 UNK         0.1355 
     79 H79        29.2487  -42.9878  -57.5714 H         1 UNK         0.0707 
     80 H80        28.6953  -42.1508  -56.1406 H         1 UNK         0.0707 
     81 H81        26.4427  -42.4456  -57.2484 H         1 UNK         0.1034 
     82 H82        26.7894  -43.6143  -58.4909 H         1 UNK         0.1034 
     83 H83        24.6804  -43.8758  -56.2988 H         1 UNK         0.0482 
     84 H84        22.7577  -43.2918  -59.8098 H         1 UNK         0.3460 
     85 H85        23.5432  -44.8138  -59.4613 H         1 UNK         0.3460 
     86 H86        25.6164  -45.9010  -58.1740 H         1 UNK         0.2989 
     87 H87        24.3297  -48.3316  -56.7628 H         1 UNK         0.0559 
     88 H88        21.8721  -48.2278  -56.7901 H         1 UNK         0.0848 
     89 H89        22.4148  -49.3388  -58.0339 H         1 UNK         0.0848 
     90 H90        21.8633  -47.7223  -58.4720 H         1 UNK         0.0848 
     91 H91        25.4612  -48.6493  -58.6109 H         1 UNK         0.3144 
     92 H92        25.3364  -48.9066  -61.3831 H         1 UNK         0.0727 
     93 H93        25.8035  -45.9324  -61.9691 H         1 UNK         0.0790 
     94 H94        24.6541  -46.9865  -62.7774 H         1 UNK         0.0790 
     95 H95        26.3768  -47.2648  -62.9716 H         1 UNK         0.0790 
     96 H96        27.3419  -48.9285  -60.4234 H         1 UNK         0.3215 
     97 H97        29.1325  -48.4409  -59.2590 H         1 UNK         0.0863 
     98 H98        30.8390  -46.7447  -58.5909 H         1 UNK         0.0808 
     99 H99        29.6712  -45.4472  -58.8496 H         1 UNK         0.0808 
    100 H100       30.2328  -46.4128  -60.2058 H         1 UNK         0.0808 
    101 H101       28.8328  -46.7611  -56.9303 H         1 UNK         0.3118 
    102 H102       26.5643  -47.3698  -55.4114 H         1 UNK         0.0546 
    103 H103       27.3629  -50.2782  -54.8362 H         1 UNK         0.0828 
    104 H104       25.7632  -49.7393  -55.3276 H         1 UNK         0.0828 
    105 H105       26.4035  -49.2526  -53.7708 H         1 UNK         0.0828 
    106 H106       29.3769  -48.1592  -55.0479 H         1 UNK         0.3005 
    107 H107       30.5358  -46.4321  -53.7307 H         1 UNK         0.1257 
    108 H108       29.3011  -46.1762  -50.9365 H         1 UNK         0.0775 
    109 H109       29.2295  -44.8983  -52.1162 H         1 UNK         0.0775 
    110 H110       30.7957  -42.9275  -51.8055 H         1 UNK         0.0840 
    111 H111       32.5271  -43.1198  -51.9124 H         1 UNK         0.0840 
    112 H112       30.5142  -48.2071  -51.4636 H         1 UNK         0.2987 
    113 H113       30.6631  -50.6610  -51.8465 H         1 UNK         0.0785 
    114 H114       30.9367  -51.7408  -54.0690 H         1 UNK         0.0798 
    115 H115       32.1109  -52.3665  -52.9222 H         1 UNK         0.0798 
    116 H116       32.6094  -51.2056  -54.1503 H         1 UNK         0.0798 
    117 H117       33.5471  -50.2504  -52.1168 H         1 UNK         0.3079 
    118 H118       33.8340  -48.6512  -48.9003 H         1 UNK         0.0794 
    119 H119       35.5386  -50.4527  -48.7936 H         1 UNK         0.0786 
    120 H120       34.8016  -51.2742  -50.1669 H         1 UNK         0.0786 
    121 H121       33.9236  -51.1281  -48.6494 H         1 UNK         0.0786 
    122 H122       35.1990  -49.1440  -51.5232 H         1 UNK         0.3032 
    123 H123       35.7018  -45.7248  -52.0141 H         1 UNK         0.1094 
    124 H124       37.9794  -47.6665  -51.3271 H         1 UNK         0.0794 
    125 H125       38.1314  -46.1860  -52.2760 H         1 UNK         0.0794 
    126 H126       37.7158  -46.1005  -50.5732 H         1 UNK         0.0794 
    127 H127       36.7179  -47.9584  -53.4567 H         1 UNK         0.3016 
@<TRIPOS>BOND
     1    1    2 1    
     2    1   67 1    
     3    1   68 1    
     4    1   69 1    
     5    2    3 2    
     6    2    4 am   BACKBONE|DICT|INTERRES
     7    4    5 1    
     8    4   70 1    
     9    5    6 1    
    10    5   65 1    
    11    5   71 1    
    12    6    7 1    
    13    6   72 1    
    14    6   73 1    
    15    7    8 1    
    16    8    9 1    
    17    8   74 1    
    18    8   75 1    
    19    9   10 ar   
    20    9   14 ar   
    21   10   11 ar   
    22   10   76 1    
    23   11   12 ar   
    24   11   48 1    
    25   12   13 ar   
    26   12   77 1    
    27   13   14 ar   
    28   13   15 1    
    29   14   78 1    
    30   15   16 1    
    31   15   79 1    
    32   15   80 1    
    33   16   17 1    
    34   17   18 1    
    35   17   81 1    
    36   17   82 1    
    37   18   19 1    
    38   18   22 1    
    39   18   83 1    
    40   19   20 am   BACKBONE|DICT|INTERRES
    41   19   21 2    
    42   20   84 1    
    43   20   85 1    
    44   22   23 am   BACKBONE|DICT|INTERRES
    45   22   86 1    
    46   23   24 2    
    47   23   25 1    
    48   25   26 1    
    49   25   27 1    
    50   25   87 1    
    51   26   88 1    
    52   26   89 1    
    53   26   90 1    
    54   27   28 am   BACKBONE|DICT|INTERRES
    55   27   91 1    
    56   28   29 2    
    57   28   30 1    
    58   30   31 1    
    59   30   32 1    
    60   30   92 1    
    61   31   93 1    
    62   31   94 1    
    63   31   95 1    
    64   32   33 am   BACKBONE|DICT|INTERRES
    65   32   96 1    
    66   33   34 2    
    67   33   35 1    
    68   35   36 1    
    69   35   37 1    
    70   35   97 1    
    71   36   98 1    
    72   36   99 1    
    73   36  100 1    
    74   37   38 am   BACKBONE|DICT|INTERRES
    75   37  101 1    
    76   38   39 2    
    77   38   40 1    
    78   40   41 1    
    79   40   42 1    
    80   40  102 1    
    81   41  103 1    
    82   41  104 1    
    83   41  105 1    
    84   42   43 am   BACKBONE|DICT|INTERRES
    85   42  106 1    
    86   43   44 2    
    87   43   45 1    
    88   45   46 1    
    89   45   49 1    
    90   45  107 1    
    91   46   47 1    
    92   46  108 1    
    93   46  109 1    
    94   47   48 1    
    95   48  110 1    
    96   48  111 1    
    97   49   50 am   BACKBONE|DICT|INTERRES
    98   49  112 1    
    99   50   51 2    
   100   50   52 1    
   101   52   53 1    
   102   52   54 1    
   103   52  113 1    
   104   53  114 1    
   105   53  115 1    
   106   53  116 1    
   107   54   55 am   BACKBONE|DICT|INTERRES
   108   54  117 1    
   109   55   56 2    
   110   55   57 1    
   111   57   58 1    
   112   57   59 1    
   113   57  118 1    
   114   58  119 1    
   115   58  120 1    
   116   58  121 1    
   117   59   60 am   BACKBONE|DICT|INTERRES
   118   59  122 1    
   119   60   61 2    
   120   60   62 1    
   121   62   63 1    
   122   62   64 1    
   123   62  123 1    
   124   63  124 1    
   125   63  125 1    
   126   63  126 1    
   127   64   65 am   BACKBONE|DICT|INTERRES
   128   64  127 1    
   129   65   66 2    
@<TRIPOS>SUBSTRUCTURE
     1 UNK         1 GROUP             0       ****    0 ROOT    
