@<TRIPOS>MOLECULE
3R134
127   129    1
SMALL
USER_CHARGES


@<TRIPOS>ATOM
      1 CA         31.1928  -45.6592  -49.2147 C.3       0 UNK        -0.1968 
      2 C          32.4760  -46.1191  -49.8901 C.2       0 UNK         0.4852 
      3 O          32.8903  -47.2636  -49.6976 O.2       0 UNK        -0.5359 
      4 N          33.1084  -45.2325  -50.6705 N.am      1 UNK        -0.4300 
      5 CA         34.2946  -45.5087  -51.4886 C.3       1 UNK         0.0863 
      6 C6         35.0341  -44.2090  -51.9217 C.3       11 UNK        -0.0953 
      7 S7         33.9772  -42.8064  -52.4273 S.3       11 UNK        -0.2369 
      8 C8         33.6259  -43.1662  -54.1855 C.3       11 UNK         0.0226 
      9 C9         32.1551  -43.4320  -54.5239 C.ar      11 UNK        -0.0699 
     10 C10        31.1383  -43.4471  -53.5567 C.ar      11 UNK        -0.0804 
     11 C11        29.8144  -43.7096  -53.9135 C.ar      11 UNK        -0.0871 
     12 C12        29.4987  -43.9428  -55.2529 C.ar      11 UNK        -0.1008 
     13 C13        30.4934  -43.9334  -56.2318 C.ar      11 UNK        -0.0735 
     14 C14        31.8171  -43.6767  -55.8606 C.ar      11 UNK        -0.0945 
     15 C15        30.1415  -44.2598  -57.6769 C.3       11 UNK         0.0169 
     16 S16        29.8116  -42.7769  -58.6830 S.3       11 UNK        -0.2669 
     17 C17        28.2017  -42.1871  -58.0388 C.3       11 UNK        -0.0850 
     18 CA         26.9596  -42.5748  -58.8941 C.3       10 UNK         0.0855 
     19 C          26.9306  -41.8908  -60.2871 C.2       10 UNK         0.5543 
     20 N          26.8549  -40.5675  -60.3293 N.am      10 UNK        -0.7343 
     21 O          26.9697  -42.5444  -61.3294 O.2       10 UNK        -0.5027 
     22 N          26.7610  -44.0235  -59.0192 N.am      10 UNK        -0.4495 
     23 C          26.3759  -44.8602  -58.0506 C.2       10 UNK         0.4903 
     24 O          26.1767  -44.5055  -56.8866 O.2       10 UNK        -0.4860 
     25 CA         26.1588  -46.3309  -58.4609 C.3       9 UNK         0.0227 
     26 CB         27.1775  -46.8140  -59.5119 C.3       9 UNK        -0.1964 
     27 N          26.2521  -47.2042  -57.2917 N.am      9 UNK        -0.4231 
     28 C          25.2231  -47.7249  -56.6147 C.2       9 UNK         0.5014 
     29 O          24.0424  -47.5772  -56.9405 O.2       9 UNK        -0.5270 
     30 CA         25.5836  -48.5488  -55.3582 C.3       8 UNK         0.0284 
     31 CB         24.3506  -49.1743  -54.6722 C.3       8 UNK        -0.1977 
     32 N          26.6097  -49.5744  -55.5981 N.am      8 UNK        -0.4342 
     33 C          26.5694  -50.5715  -56.4966 C.2       8 UNK         0.5039 
     34 O          25.6228  -50.7807  -57.2585 O.2       8 UNK        -0.5547 
     35 CA         27.8061  -51.4922  -56.5367 C.3       7 UNK         0.0281 
     36 CB         27.7518  -52.5444  -57.6651 C.3       7 UNK        -0.1963 
     37 N          29.0597  -50.7336  -56.5854 N.am      7 UNK        -0.4444 
     38 C          29.4607  -49.8695  -57.5293 C.2       7 UNK         0.5104 
     39 O          28.8626  -49.6656  -58.5861 O.2       7 UNK        -0.5100 
     40 CA         30.7351  -49.0684  -57.1904 C.3       6 UNK         0.0396 
     41 CB         31.1161  -48.0395  -58.2741 C.3       6 UNK        -0.1801 
     42 N          30.6369  -48.4183  -55.8772 N.am      6 UNK        -0.4747 
     43 C          29.6799  -47.5717  -55.4601 C.2       6 UNK         0.5012 
     44 O          28.7699  -47.1669  -56.1810 O.2       6 UNK        -0.5003 
     45 CA         29.7482  -47.1303  -53.9818 C.3       5 UNK         0.0782 
     46 C46        28.4185  -46.5337  -53.4314 C.3       11 UNK        -0.0868 
     47 S47        28.7342  -45.4227  -52.0206 S.3       11 UNK        -0.2515 
     48 C48        28.7330  -43.7953  -52.8453 C.3       11 UNK         0.0199 
     49 N          30.3029  -48.1863  -53.1274 N.am      5 UNK        -0.4607 
     50 C          29.7487  -49.3863  -52.9080 C.2       4 UNK         0.5031 
     51 O          28.6631  -49.7376  -53.3794 O.2       4 UNK        -0.5119 
     52 CA         30.6064  -50.3753  -52.0989 C.3       4 UNK         0.0263 
     53 CB         29.8338  -51.6525  -51.7054 C.3       4 UNK        -0.1967 
     54 N          31.8468  -50.7145  -52.8114 N.am      4 UNK        -0.4237 
     55 C          31.9602  -51.2597  -54.0321 C.2       3 UNK         0.4908 
     56 O          31.0009  -51.5727  -54.7365 O.2       3 UNK        -0.5102 
     57 CA         33.3901  -51.4248  -54.5812 C.3       3 UNK         0.0241 
     58 CB         33.4358  -52.2829  -55.8604 C.3       3 UNK        -0.1971 
     59 N          34.0011  -50.1219  -54.8598 N.am      3 UNK        -0.4139 
     60 C          34.4933  -49.2956  -53.9281 C.2       2 UNK         0.5016 
     61 O          34.5280  -49.5863  -52.7289 O.2       2 UNK        -0.5319 
     62 CA         35.0458  -47.9352  -54.4055 C.3       2 UNK         0.0286 
     63 CB         34.3334  -47.3769  -55.6624 C.3       2 UNK        -0.1963 
     64 N          35.0539  -46.9407  -53.3232 N.am      2 UNK        -0.4790 
     65 C          33.9853  -46.4441  -52.6792 C.2       1 UNK         0.5024 
     66 O          32.8192  -46.7041  -52.9876 O.2       1 UNK        -0.4888 
     67 H67        30.8834  -44.6712  -49.5554 H         1 UNK         0.0892 
     68 H68        30.3846  -46.3560  -49.4340 H         1 UNK         0.0892 
     69 H69        31.3291  -45.6220  -48.1350 H         1 UNK         0.0892 
     70 H70        32.7173  -44.3107  -50.7985 H         1 UNK         0.3107 
     71 H71        34.9853  -46.0693  -50.8543 H         1 UNK         0.0773 
     72 H72        35.6117  -43.8511  -51.0680 H         1 UNK         0.0680 
     73 H73        35.7793  -44.3960  -52.6968 H         1 UNK         0.0680 
     74 H74        33.9662  -42.3126  -54.7724 H         1 UNK         0.0650 
     75 H75        34.2215  -44.0185  -54.5136 H         1 UNK         0.0650 
     76 H76        31.3591  -43.2785  -52.5141 H         1 UNK         0.1397 
     77 H77        28.4794  -44.1732  -55.5299 H         1 UNK         0.1363 
     78 H78        32.5901  -43.6770  -56.6172 H         1 UNK         0.1355 
     79 H79        30.9646  -44.8112  -58.1332 H         1 UNK         0.0707 
     80 H80        29.2803  -44.9264  -57.7151 H         1 UNK         0.0707 
     81 H81        28.2652  -41.1020  -57.9456 H         1 UNK         0.1034 
     82 H82        28.0587  -42.5343  -57.0189 H         1 UNK         0.1034 
     83 H83        26.0760  -42.1964  -58.3763 H         1 UNK         0.0482 
     84 H84        26.8111  -40.0174  -59.4860 H         1 UNK         0.3460 
     85 H85        26.8351  -40.1080  -61.2264 H         1 UNK         0.3460 
     86 H86        26.8836  -44.3677  -59.9623 H         1 UNK         0.2989 
     87 H87        25.1620  -46.4009  -58.8998 H         1 UNK         0.0559 
     88 H88        27.0537  -47.8778  -59.7164 H         1 UNK         0.0848 
     89 H89        28.2035  -46.6625  -59.1772 H         1 UNK         0.0848 
     90 H90        27.0567  -46.2961  -60.4636 H         1 UNK         0.0848 
     91 H91        27.1903  -47.3095  -56.9019 H         1 UNK         0.3144 
     92 H92        26.0200  -47.8401  -54.6547 H         1 UNK         0.0727 
     93 H93        24.6295  -49.6984  -53.7581 H         1 UNK         0.0790 
     94 H94        23.8418  -49.8844  -55.3249 H         1 UNK         0.0790 
     95 H95        23.6254  -48.4076  -54.3968 H         1 UNK         0.0790 
     96 H96        27.4275  -49.5233  -54.9960 H         1 UNK         0.3215 
     97 H97        27.8160  -52.0294  -55.5869 H         1 UNK         0.0863 
     98 H98        28.6296  -53.1901  -57.6471 H         1 UNK         0.0808 
     99 H99        27.6948  -52.0816  -58.6506 H         1 UNK         0.0808 
    100 H100       26.8757  -53.1849  -57.5572 H         1 UNK         0.0808 
    101 H101       29.6727  -50.8675  -55.7813 H         1 UNK         0.3118 
    102 H102       31.5477  -49.7921  -57.1216 H         1 UNK         0.0546 
    103 H103       30.3385  -47.2891  -58.4094 H         1 UNK         0.0828 
    104 H104       31.2685  -48.5261  -59.2381 H         1 UNK         0.0828 
    105 H105       32.0406  -47.5206  -58.0221 H         1 UNK         0.0828 
    106 H106       31.3122  -48.7139  -55.1880 H         1 UNK         0.3005 
    107 H107       30.4933  -46.3352  -53.9902 H         1 UNK         0.1257 
    108 H108       27.8664  -45.9738  -54.1864 H         1 UNK         0.0775 
    109 H109       27.7377  -47.3184  -53.1032 H         1 UNK         0.0775 
    110 H110       27.7490  -43.6081  -53.2783 H         1 UNK         0.0840 
    111 H111       28.8895  -43.0169  -52.0972 H         1 UNK         0.0840 
    112 H112       31.2163  -47.9698  -52.7404 H         1 UNK         0.2987 
    113 H113       30.8973  -49.8649  -51.1788 H         1 UNK         0.0785 
    114 H114       30.4486  -52.3164  -51.0980 H         1 UNK         0.0798 
    115 H115       29.4977  -52.2131  -52.5787 H         1 UNK         0.0798 
    116 H116       28.9474  -51.4045  -51.1204 H         1 UNK         0.0798 
    117 H117       32.7112  -50.4152  -52.3679 H         1 UNK         0.3079 
    118 H118       33.9780  -51.9394  -53.8177 H         1 UNK         0.0794 
    119 H119       32.9954  -53.2657  -55.6857 H         1 UNK         0.0786 
    120 H120       34.4615  -52.4449  -56.1924 H         1 UNK         0.0786 
    121 H121       32.8865  -51.8229  -56.6822 H         1 UNK         0.0786 
    122 H122       34.0146  -49.8260  -55.8246 H         1 UNK         0.3032 
    123 H123       36.0913  -48.1118  -54.6664 H         1 UNK         0.1094 
    124 H124       34.4951  -48.0123  -56.5340 H         1 UNK         0.0794 
    125 H125       33.2568  -47.2805  -55.5185 H         1 UNK         0.0794 
    126 H126       34.7162  -46.3897  -55.9216 H         1 UNK         0.0794 
    127 H127       35.9712  -46.6999  -52.9726 H         1 UNK         0.3016 
@<TRIPOS>BOND
     1    1    2 1    
     2    1   67 1    
     3    1   68 1    
     4    1   69 1    
     5    2    3 2    
     6    2    4 am   BACKBONE|DICT|INTERRES
     7    4    5 1    
     8    4   70 1    
     9    5    6 1    
    10    5   65 1    
    11    5   71 1    
    12    6    7 1    
    13    6   72 1    
    14    6   73 1    
    15    7    8 1    
    16    8    9 1    
    17    8   74 1    
    18    8   75 1    
    19    9   10 ar   
    20    9   14 ar   
    21   10   11 ar   
    22   10   76 1    
    23   11   12 ar   
    24   11   48 1    
    25   12   13 ar   
    26   12   77 1    
    27   13   14 ar   
    28   13   15 1    
    29   14   78 1    
    30   15   16 1    
    31   15   79 1    
    32   15   80 1    
    33   16   17 1    
    34   17   18 1    
    35   17   81 1    
    36   17   82 1    
    37   18   19 1    
    38   18   22 1    
    39   18   83 1    
    40   19   20 am   BACKBONE|DICT|INTERRES
    41   19   21 2    
    42   20   84 1    
    43   20   85 1    
    44   22   23 am   BACKBONE|DICT|INTERRES
    45   22   86 1    
    46   23   24 2    
    47   23   25 1    
    48   25   26 1    
    49   25   27 1    
    50   25   87 1    
    51   26   88 1    
    52   26   89 1    
    53   26   90 1    
    54   27   28 am   BACKBONE|DICT|INTERRES
    55   27   91 1    
    56   28   29 2    
    57   28   30 1    
    58   30   31 1    
    59   30   32 1    
    60   30   92 1    
    61   31   93 1    
    62   31   94 1    
    63   31   95 1    
    64   32   33 am   BACKBONE|DICT|INTERRES
    65   32   96 1    
    66   33   34 2    
    67   33   35 1    
    68   35   36 1    
    69   35   37 1    
    70   35   97 1    
    71   36   98 1    
    72   36   99 1    
    73   36  100 1    
    74   37   38 am   BACKBONE|DICT|INTERRES
    75   37  101 1    
    76   38   39 2    
    77   38   40 1    
    78   40   41 1    
    79   40   42 1    
    80   40  102 1    
    81   41  103 1    
    82   41  104 1    
    83   41  105 1    
    84   42   43 am   BACKBONE|DICT|INTERRES
    85   42  106 1    
    86   43   44 2    
    87   43   45 1    
    88   45   46 1    
    89   45   49 1    
    90   45  107 1    
    91   46   47 1    
    92   46  108 1    
    93   46  109 1    
    94   47   48 1    
    95   48  110 1    
    96   48  111 1    
    97   49   50 am   BACKBONE|DICT|INTERRES
    98   49  112 1    
    99   50   51 2    
   100   50   52 1    
   101   52   53 1    
   102   52   54 1    
   103   52  113 1    
   104   53  114 1    
   105   53  115 1    
   106   53  116 1    
   107   54   55 am   BACKBONE|DICT|INTERRES
   108   54  117 1    
   109   55   56 2    
   110   55   57 1    
   111   57   58 1    
   112   57   59 1    
   113   57  118 1    
   114   58  119 1    
   115   58  120 1    
   116   58  121 1    
   117   59   60 am   BACKBONE|DICT|INTERRES
   118   59  122 1    
   119   60   61 2    
   120   60   62 1    
   121   62   63 1    
   122   62   64 1    
   123   62  123 1    
   124   63  124 1    
   125   63  125 1    
   126   63  126 1    
   127   64   65 am   BACKBONE|DICT|INTERRES
   128   64  127 1    
   129   65   66 2    
@<TRIPOS>SUBSTRUCTURE
     1 UNK         1 GROUP             0       ****    0 ROOT    
