@<TRIPOS>MOLECULE
3R134
127   129    1
SMALL
USER_CHARGES


@<TRIPOS>ATOM
      1 CA         30.8586  -43.9282  -47.8732 C.3       0 UNK        -0.1968 
      2 C          31.9889  -44.8999  -48.1801 C.2       0 UNK         0.4852 
      3 O          32.4506  -45.6048  -47.2807 O.2       0 UNK        -0.5359 
      4 N          32.4415  -44.9352  -49.4394 N.am      1 UNK        -0.4300 
      5 CA         33.4624  -45.8595  -49.9400 C.3       1 UNK         0.0863 
      6 C6         34.1416  -45.3083  -51.2231 C.3       11 UNK        -0.0953 
      7 S7         32.9981  -45.1319  -52.6323 S.3       11 UNK        -0.2369 
      8 C8         33.7725  -43.8042  -53.5962 C.3       11 UNK         0.0226 
      9 C9         33.0019  -43.5750  -54.8874 C.ar      11 UNK        -0.0699 
     10 C10        33.4086  -44.1929  -56.0728 C.ar      11 UNK        -0.0804 
     11 C11        32.6900  -44.0046  -57.2582 C.ar      11 UNK        -0.0871 
     12 C12        31.5528  -43.1901  -57.2523 C.ar      11 UNK        -0.1008 
     13 C13        31.1470  -42.5525  -56.0749 C.ar      11 UNK        -0.0735 
     14 C14        31.8744  -42.7498  -54.8970 C.ar      11 UNK        -0.0945 
     15 C15        29.9457  -41.6200  -56.0699 C.3       11 UNK         0.0169 
     16 S16        28.4695  -42.4264  -55.3814 S.3       11 UNK        -0.2669 
     17 C17        27.8162  -43.2887  -56.8489 C.3       11 UNK        -0.0850 
     18 CA         26.4273  -43.9235  -56.5651 C.3       10 UNK         0.0855 
     19 C          25.2988  -42.8546  -56.6486 C.2       10 UNK         0.5543 
     20 N          24.8546  -42.3232  -55.5181 N.am      10 UNK        -0.7343 
     21 O          24.8541  -42.4814  -57.7328 O.2       10 UNK        -0.5027 
     22 N          26.1895  -45.0795  -57.4423 N.am      10 UNK        -0.4495 
     23 C          25.0993  -45.8575  -57.4239 C.2       10 UNK         0.4903 
     24 O          24.1994  -45.7716  -56.5876 O.2       10 UNK        -0.4860 
     25 CA         24.9788  -46.9059  -58.5344 C.3       9 UNK         0.0227 
     26 CB         25.5401  -46.4396  -59.8945 C.3       9 UNK        -0.1964 
     27 N          25.6233  -48.1488  -58.1192 N.am      9 UNK        -0.4231 
     28 C          25.1832  -49.3714  -58.4433 C.2       9 UNK         0.5014 
     29 O          24.1602  -49.5767  -59.0996 O.2       9 UNK        -0.5270 
     30 CA         26.0224  -50.5806  -57.9989 C.3       8 UNK         0.0284 
     31 CB         26.8573  -51.1031  -59.1801 C.3       8 UNK        -0.1977 
     32 N          26.9098  -50.3028  -56.8670 N.am      8 UNK        -0.4342 
     33 C          26.5186  -50.2906  -55.5858 C.2       8 UNK         0.5039 
     34 O          25.3557  -50.4738  -55.2233 O.2       8 UNK        -0.5547 
     35 CA         27.6074  -50.0406  -54.5275 C.3       7 UNK         0.0281 
     36 CB         28.4477  -51.3071  -54.2982 C.3       7 UNK        -0.1963 
     37 N          28.4888  -48.9207  -54.8623 N.am      7 UNK        -0.4444 
     38 C          28.0982  -47.6399  -54.9141 C.2       7 UNK         0.5104 
     39 O          26.9521  -47.2606  -54.6770 O.2       7 UNK        -0.5100 
     40 CA         29.1593  -46.6089  -55.3183 C.3       6 UNK         0.0396 
     41 CB         30.0126  -46.1870  -54.1177 C.3       6 UNK        -0.1801 
     42 N          30.0172  -47.1036  -56.3949 N.am      6 UNK        -0.4747 
     43 C          29.6588  -47.1169  -57.6864 C.2       6 UNK         0.5012 
     44 O          28.6056  -46.6352  -58.1048 O.2       6 UNK        -0.5003 
     45 CA         30.6016  -47.8189  -58.6839 C.3       5 UNK         0.0782 
     46 C46        31.5427  -46.8171  -59.4043 C.3       11 UNK        -0.0868 
     47 S47        33.0939  -46.4559  -58.5044 S.3       11 UNK        -0.2515 
     48 C48        33.1859  -44.6384  -58.5497 C.3       11 UNK         0.0199 
     49 N          31.3307  -48.9477  -58.0961 N.am      5 UNK        -0.4607 
     50 C          30.7745  -50.0754  -57.6387 C.2       4 UNK         0.5031 
     51 O          29.5703  -50.3126  -57.6920 O.2       4 UNK        -0.5119 
     52 CA         31.7126  -51.0855  -56.9593 C.3       4 UNK         0.0263 
     53 CB         32.3492  -52.0154  -58.0038 C.3       4 UNK        -0.1967 
     54 N          32.7623  -50.4524  -56.1540 N.am      4 UNK        -0.4237 
     55 C          32.5382  -49.6604  -55.0965 C.2       3 UNK         0.4908 
     56 O          31.4132  -49.3472  -54.6980 O.2       3 UNK        -0.5102 
     57 CA         33.7832  -49.0661  -54.4203 C.3       3 UNK         0.0241 
     58 CB         34.0923  -47.6822  -55.0124 C.3       3 UNK        -0.1971 
     59 N          33.6241  -48.9445  -52.9700 N.am      3 UNK        -0.4139 
     60 C          33.5611  -49.9773  -52.1163 C.2       2 UNK         0.5016 
     61 O          33.6264  -51.1546  -52.4754 O.2       2 UNK        -0.5319 
     62 CA         33.4511  -49.6574  -50.6100 C.3       2 UNK         0.0286 
     63 CB         34.3689  -50.5682  -49.7729 C.3       2 UNK        -0.1963 
     64 N          33.7805  -48.2601  -50.3045 N.am      2 UNK        -0.4790 
     65 C          32.8836  -47.2782  -50.1528 C.2       1 UNK         0.5024 
     66 O          31.6646  -47.4548  -50.2247 O.2       1 UNK        -0.4888 
     67 H67        30.5577  -43.3610  -48.7539 H         1 UNK         0.0892 
     68 H68        29.9878  -44.4705  -47.5060 H         1 UNK         0.0892 
     69 H69        31.1695  -43.2210  -47.1047 H         1 UNK         0.0892 
     70 H70        31.9991  -44.3652  -50.1462 H         1 UNK         0.3107 
     71 H71        34.2355  -45.9435  -49.1728 H         1 UNK         0.0773 
     72 H72        34.9699  -45.9491  -51.5301 H         1 UNK         0.0680 
     73 H73        34.5872  -44.3359  -51.0072 H         1 UNK         0.0680 
     74 H74        34.8089  -44.0687  -53.8116 H         1 UNK         0.0650 
     75 H75        33.7970  -42.8881  -53.0042 H         1 UNK         0.0650 
     76 H76        34.2866  -44.8242  -56.0751 H         1 UNK         0.1397 
     77 H77        30.9973  -43.0323  -58.1666 H         1 UNK         0.1363 
     78 H78        31.5566  -42.2661  -53.9834 H         1 UNK         0.1355 
     79 H79        30.1760  -40.7421  -55.4643 H         1 UNK         0.0707 
     80 H80        29.7363  -41.2462  -57.0733 H         1 UNK         0.0707 
     81 H81        27.7698  -42.6004  -57.6954 H         1 UNK         0.1034 
     82 H82        28.5458  -44.0473  -57.1331 H         1 UNK         0.1034 
     83 H83        26.4352  -44.3327  -55.5524 H         1 UNK         0.0482 
     84 H84        25.2364  -42.6067  -54.6292 H         1 UNK         0.3460 
     85 H85        24.1337  -41.6198  -55.5540 H         1 UNK         0.3460 
     86 H86        26.9143  -45.2887  -58.1168 H         1 UNK         0.2989 
     87 H87        23.9078  -47.0776  -58.6641 H         1 UNK         0.0559 
     88 H88        26.6277  -46.3682  -59.8926 H         1 UNK         0.0848 
     89 H89        25.1433  -45.4611  -60.1687 H         1 UNK         0.0848 
     90 H90        25.2605  -47.1322  -60.6885 H         1 UNK         0.0848 
     91 H91        26.4558  -48.0575  -57.5516 H         1 UNK         0.3144 
     92 H92        25.3269  -51.3705  -57.7066 H         1 UNK         0.0727 
     93 H93        27.4335  -51.9854  -58.9004 H         1 UNK         0.0790 
     94 H94        27.5557  -50.3486  -59.5448 H         1 UNK         0.0790 
     95 H95        26.2172  -51.3858  -60.0171 H         1 UNK         0.0790 
     96 H96        27.9016  -50.1962  -57.0845 H         1 UNK         0.3215 
     97 H97        27.1054  -49.7952  -53.5890 H         1 UNK         0.0863 
     98 H98        29.1963  -51.1526  -53.5206 H         1 UNK         0.0808 
     99 H99        28.9668  -51.6174  -55.2049 H         1 UNK         0.0808 
    100 H100       27.8179  -52.1400  -53.9829 H         1 UNK         0.0808 
    101 H101       29.4716  -49.1319  -55.0124 H         1 UNK         0.3118 
    102 H102       28.6316  -45.7217  -55.6629 H         1 UNK         0.0546 
    103 H103       29.3893  -45.8060  -53.3079 H         1 UNK         0.0828 
    104 H104       30.6955  -45.3875  -54.4008 H         1 UNK         0.0828 
    105 H105       30.6026  -47.0115  -53.7171 H         1 UNK         0.0828 
    106 H106       30.8792  -47.5557  -56.1223 H         1 UNK         0.3005 
    107 H107       29.9420  -48.2411  -59.4462 H         1 UNK         0.1257 
    108 H108       31.0167  -45.8912  -59.6454 H         1 UNK         0.0775 
    109 H109       31.8329  -47.2389  -60.3677 H         1 UNK         0.0775 
    110 H110       34.2285  -44.3526  -58.6962 H         1 UNK         0.0840 
    111 H111       32.6488  -44.2504  -59.4162 H         1 UNK         0.0840 
    112 H112       32.3282  -48.8203  -58.0036 H         1 UNK         0.2987 
    113 H113       31.1071  -51.6954  -56.2866 H         1 UNK         0.0785 
    114 H114       31.5830  -52.5113  -58.6017 H         1 UNK         0.0798 
    115 H115       32.9429  -52.7975  -57.5301 H         1 UNK         0.0798 
    116 H116       32.9971  -51.4706  -58.6917 H         1 UNK         0.0798 
    117 H117       33.7165  -50.6471  -56.4226 H         1 UNK         0.3079 
    118 H118       34.6363  -49.7225  -54.6050 H         1 UNK         0.0794 
    119 H119       33.2332  -47.0134  -54.9433 H         1 UNK         0.0786 
    120 H120       34.3569  -47.7609  -56.0671 H         1 UNK         0.0786 
    121 H121       34.9314  -47.2053  -54.5056 H         1 UNK         0.0786 
    122 H122       33.5136  -48.0118  -52.6011 H         1 UNK         0.3032 
    123 H123       32.4187  -49.8692  -50.3221 H         1 UNK         0.1094 
    124 H124       35.4167  -50.4524  -50.0525 H         1 UNK         0.0794 
    125 H125       34.2789  -50.3507  -48.7084 H         1 UNK         0.0794 
    126 H126       34.1097  -51.6193  -49.9065 H         1 UNK         0.0794 
    127 H127       34.7649  -48.0358  -50.2520 H         1 UNK         0.3016 
@<TRIPOS>BOND
     1    1    2 1    
     2    1   67 1    
     3    1   68 1    
     4    1   69 1    
     5    2    3 2    
     6    2    4 am   BACKBONE|DICT|INTERRES
     7    4    5 1    
     8    4   70 1    
     9    5    6 1    
    10    5   65 1    
    11    5   71 1    
    12    6    7 1    
    13    6   72 1    
    14    6   73 1    
    15    7    8 1    
    16    8    9 1    
    17    8   74 1    
    18    8   75 1    
    19    9   10 ar   
    20    9   14 ar   
    21   10   11 ar   
    22   10   76 1    
    23   11   12 ar   
    24   11   48 1    
    25   12   13 ar   
    26   12   77 1    
    27   13   14 ar   
    28   13   15 1    
    29   14   78 1    
    30   15   16 1    
    31   15   79 1    
    32   15   80 1    
    33   16   17 1    
    34   17   18 1    
    35   17   81 1    
    36   17   82 1    
    37   18   19 1    
    38   18   22 1    
    39   18   83 1    
    40   19   20 am   BACKBONE|DICT|INTERRES
    41   19   21 2    
    42   20   84 1    
    43   20   85 1    
    44   22   23 am   BACKBONE|DICT|INTERRES
    45   22   86 1    
    46   23   24 2    
    47   23   25 1    
    48   25   26 1    
    49   25   27 1    
    50   25   87 1    
    51   26   88 1    
    52   26   89 1    
    53   26   90 1    
    54   27   28 am   BACKBONE|DICT|INTERRES
    55   27   91 1    
    56   28   29 2    
    57   28   30 1    
    58   30   31 1    
    59   30   32 1    
    60   30   92 1    
    61   31   93 1    
    62   31   94 1    
    63   31   95 1    
    64   32   33 am   BACKBONE|DICT|INTERRES
    65   32   96 1    
    66   33   34 2    
    67   33   35 1    
    68   35   36 1    
    69   35   37 1    
    70   35   97 1    
    71   36   98 1    
    72   36   99 1    
    73   36  100 1    
    74   37   38 am   BACKBONE|DICT|INTERRES
    75   37  101 1    
    76   38   39 2    
    77   38   40 1    
    78   40   41 1    
    79   40   42 1    
    80   40  102 1    
    81   41  103 1    
    82   41  104 1    
    83   41  105 1    
    84   42   43 am   BACKBONE|DICT|INTERRES
    85   42  106 1    
    86   43   44 2    
    87   43   45 1    
    88   45   46 1    
    89   45   49 1    
    90   45  107 1    
    91   46   47 1    
    92   46  108 1    
    93   46  109 1    
    94   47   48 1    
    95   48  110 1    
    96   48  111 1    
    97   49   50 am   BACKBONE|DICT|INTERRES
    98   49  112 1    
    99   50   51 2    
   100   50   52 1    
   101   52   53 1    
   102   52   54 1    
   103   52  113 1    
   104   53  114 1    
   105   53  115 1    
   106   53  116 1    
   107   54   55 am   BACKBONE|DICT|INTERRES
   108   54  117 1    
   109   55   56 2    
   110   55   57 1    
   111   57   58 1    
   112   57   59 1    
   113   57  118 1    
   114   58  119 1    
   115   58  120 1    
   116   58  121 1    
   117   59   60 am   BACKBONE|DICT|INTERRES
   118   59  122 1    
   119   60   61 2    
   120   60   62 1    
   121   62   63 1    
   122   62   64 1    
   123   62  123 1    
   124   63  124 1    
   125   63  125 1    
   126   63  126 1    
   127   64   65 am   BACKBONE|DICT|INTERRES
   128   64  127 1    
   129   65   66 2    
@<TRIPOS>SUBSTRUCTURE
     1 UNK         1 GROUP             0       ****    0 ROOT    
