@<TRIPOS>MOLECULE
3R134
127   129    1
SMALL
USER_CHARGES


@<TRIPOS>ATOM
      1 CA         37.4407  -43.5752  -57.1557 C.3       0 UNK        -0.1968 
      2 C          36.5031  -44.4830  -56.3724 C.2       0 UNK         0.4852 
      3 O          36.9745  -45.3170  -55.5975 O.2       0 UNK        -0.5359 
      4 N          35.1871  -44.3196  -56.5728 N.am      1 UNK        -0.4300 
      5 CA         34.1015  -45.0905  -55.9487 C.3       1 UNK         0.0863 
      6 C6         33.9931  -44.8878  -54.4071 C.3       11 UNK        -0.0953 
      7 S7         33.8631  -43.1282  -53.9403 S.3       11 UNK        -0.2369 
      8 C8         32.7985  -43.2115  -52.4579 C.3       11 UNK         0.0226 
      9 C9         31.3176  -43.5102  -52.7065 C.ar      11 UNK        -0.0699 
     10 C10        30.5294  -43.9027  -51.6196 C.ar      11 UNK        -0.0804 
     11 C11        29.1632  -44.1560  -51.7747 C.ar      11 UNK        -0.0871 
     12 C12        28.5801  -44.0285  -53.0387 C.ar      11 UNK        -0.1008 
     13 C13        29.3522  -43.6361  -54.1354 C.ar      11 UNK        -0.0735 
     14 C14        30.7138  -43.3710  -53.9633 C.ar      11 UNK        -0.0945 
     15 C15        28.7249  -43.5180  -55.5142 C.3       11 UNK         0.0169 
     16 S16        27.8607  -41.9362  -55.7326 S.3       11 UNK        -0.2669 
     17 C17        27.8265  -41.7968  -57.5539 C.3       11 UNK        -0.0850 
     18 CA         26.6297  -42.5409  -58.2034 C.3       10 UNK         0.0855 
     19 C          26.3974  -42.0662  -59.6682 C.2       10 UNK         0.5543 
     20 N          26.4842  -42.9296  -60.6735 N.am      10 UNK        -0.7343 
     21 O          26.1210  -40.8908  -59.8952 O.2       10 UNK        -0.5027 
     22 N          26.7670  -44.0018  -58.0745 N.am      10 UNK        -0.4495 
     23 C          25.7500  -44.8613  -57.9676 C.2       10 UNK         0.4903 
     24 O          24.5711  -44.5125  -57.8957 O.2       10 UNK        -0.4860 
     25 CA         26.0736  -46.3673  -57.9376 C.3       9 UNK         0.0227 
     26 CB         25.8727  -46.9959  -59.3298 C.3       9 UNK        -0.1964 
     27 N          27.3762  -46.7567  -57.3763 N.am      9 UNK        -0.4231 
     28 C          28.6155  -46.5327  -57.8387 C.2       9 UNK         0.5014 
     29 O          28.8746  -45.7666  -58.7672 O.2       9 UNK        -0.5270 
     30 CA         29.7601  -47.3082  -57.1570 C.3       8 UNK         0.0284 
     31 CB         30.3098  -46.5461  -55.9423 C.3       8 UNK        -0.1977 
     32 N          29.3597  -48.6540  -56.7387 N.am      8 UNK        -0.4342 
     33 C          29.0686  -49.6616  -57.5750 C.2       8 UNK         0.5039 
     34 O          29.1566  -49.5874  -58.8010 O.2       8 UNK        -0.5547 
     35 CA         28.5798  -50.9700  -56.9340 C.3       7 UNK         0.0281 
     36 CB         29.7628  -51.8505  -56.4962 C.3       7 UNK        -0.1963 
     37 N          27.7014  -50.7109  -55.7917 N.am      7 UNK        -0.4444 
     38 C          26.4100  -50.3657  -55.8989 C.2       7 UNK         0.5104 
     39 O          25.7996  -50.3130  -56.9664 O.2       7 UNK        -0.5100 
     40 CA         25.6738  -50.0036  -54.5959 C.3       6 UNK         0.0396 
     41 CB         25.0022  -51.2488  -53.9958 C.3       6 UNK        -0.1801 
     42 N          26.5429  -49.3880  -53.5889 N.am      6 UNK        -0.4747 
     43 C          27.1160  -48.1807  -53.7093 C.2       6 UNK         0.5012 
     44 O          26.9502  -47.4410  -54.6775 O.2       6 UNK        -0.5003 
     45 CA         28.0771  -47.7505  -52.5837 C.3       5 UNK         0.0782 
     46 C46        27.2978  -47.0066  -51.4744 C.3       11 UNK        -0.0868 
     47 S47        28.3996  -46.3125  -50.1977 S.3       11 UNK        -0.2515 
     48 C48        28.3190  -44.5312  -50.5648 C.3       11 UNK         0.0199 
     49 N          28.8594  -48.8768  -52.0556 N.am      5 UNK        -0.4607 
     50 C          29.7061  -49.6231  -52.7739 C.2       4 UNK         0.5031 
     51 O          29.9082  -49.4650  -53.9815 O.2       4 UNK        -0.5119 
     52 CA         30.3864  -50.7795  -52.0388 C.3       4 UNK         0.0263 
     53 CB         29.4860  -52.0280  -52.0393 C.3       4 UNK        -0.1967 
     54 N          31.6443  -51.0776  -52.7125 N.am      4 UNK        -0.4237 
     55 C          32.7371  -51.5894  -52.1338 C.2       3 UNK         0.4908 
     56 O          32.7830  -51.9351  -50.9522 O.2       3 UNK        -0.5102 
     57 CA         33.9985  -51.7537  -53.0070 C.3       3 UNK         0.0241 
     58 CB         34.1963  -53.2314  -53.3849 C.3       3 UNK        -0.1971 
     59 N          34.0038  -50.9447  -54.2320 N.am      3 UNK        -0.4139 
     60 C          34.0486  -49.6061  -54.2689 C.2       2 UNK         0.5016 
     61 O          34.1093  -48.8938  -53.2619 O.2       2 UNK        -0.5319 
     62 CA         33.9843  -48.9563  -55.6593 C.3       2 UNK         0.0286 
     63 CB         32.7619  -49.4495  -56.4614 C.3       2 UNK        -0.1963 
     64 N          33.9283  -47.5092  -55.4707 N.am      2 UNK        -0.4790 
     65 C          34.1600  -46.5720  -56.3956 C.2       1 UNK         0.5024 
     66 O          34.3998  -46.8351  -57.5766 O.2       1 UNK        -0.4888 
     67 H67        38.1004  -44.1713  -57.7856 H         1 UNK         0.0892 
     68 H68        36.8972  -42.8805  -57.7959 H         1 UNK         0.0892 
     69 H69        38.0568  -42.9929  -56.4711 H         1 UNK         0.0892 
     70 H70        34.8819  -43.6297  -57.2444 H         1 UNK         0.3107 
     71 H71        33.1804  -44.7022  -56.3856 H         1 UNK         0.0773 
     72 H72        34.8560  -45.3134  -53.8920 H         1 UNK         0.0680 
     73 H73        33.1127  -45.4042  -54.0202 H         1 UNK         0.0680 
     74 H74        32.8669  -42.2531  -51.9419 H         1 UNK         0.0650 
     75 H75        33.2151  -43.9570  -51.7787 H         1 UNK         0.0650 
     76 H76        30.9792  -43.9995  -50.6405 H         1 UNK         0.1397 
     77 H77        27.5246  -44.2229  -53.1714 H         1 UNK         0.1363 
     78 H78        31.2943  -43.0535  -54.8172 H         1 UNK         0.1355 
     79 H79        29.4898  -43.6229  -56.2840 H         1 UNK         0.0707 
     80 H80        28.0186  -44.3357  -55.6607 H         1 UNK         0.0707 
     81 H81        27.7754  -40.7289  -57.7756 H         1 UNK         0.1034 
     82 H82        28.7730  -42.1376  -57.9770 H         1 UNK         0.1034 
     83 H83        25.7329  -42.2355  -57.6608 H         1 UNK         0.0482 
     84 H84        26.3260  -42.6095  -61.6160 H         1 UNK         0.3460 
     85 H85        26.7150  -43.8941  -60.4978 H         1 UNK         0.3460 
     86 H86        27.6924  -44.3935  -58.2223 H         1 UNK         0.2989 
     87 H87        25.3375  -46.8185  -57.2702 H         1 UNK         0.0559 
     88 H88        24.8726  -46.7884  -59.7129 H         1 UNK         0.0848 
     89 H89        25.9862  -48.0797  -59.2919 H         1 UNK         0.0848 
     90 H90        26.5864  -46.6102  -60.0583 H         1 UNK         0.0848 
     91 H91        27.3045  -47.2791  -56.5056 H         1 UNK         0.3144 
     92 H92        30.5677  -47.4137  -57.8844 H         1 UNK         0.0727 
     93 H93        29.5288  -46.3355  -55.2127 H         1 UNK         0.0790 
     94 H94        30.7494  -45.5972  -56.2473 H         1 UNK         0.0790 
     95 H95        31.0894  -47.1094  -55.4314 H         1 UNK         0.0790 
     96 H96        29.3349  -48.8366  -55.7396 H         1 UNK         0.3215 
     97 H97        28.0165  -51.5196  -57.6917 H         1 UNK         0.0863 
     98 H98        29.4189  -52.8096  -56.1088 H         1 UNK         0.0808 
     99 H99        30.3659  -51.3762  -55.7232 H         1 UNK         0.0808 
    100 H100       30.4226  -52.0604  -57.3391 H         1 UNK         0.0808 
    101 H101       28.1339  -50.6852  -54.8793 H         1 UNK         0.3118 
    102 H102       24.8923  -49.2839  -54.8491 H         1 UNK         0.0546 
    103 H103       25.7337  -52.0021  -53.7006 H         1 UNK         0.0828 
    104 H104       24.3293  -51.7143  -54.7176 H         1 UNK         0.0828 
    105 H105       24.4066  -50.9955  -53.1187 H         1 UNK         0.0828 
    106 H106       26.7332  -49.9274  -52.7565 H         1 UNK         0.3005 
    107 H107       28.7865  -47.0485  -53.0274 H         1 UNK         0.1257 
    108 H108       26.5956  -47.6817  -50.9815 H         1 UNK         0.0775 
    109 H109       26.6909  -46.2049  -51.8994 H         1 UNK         0.0775 
    110 H110       27.2813  -44.2245  -50.7055 H         1 UNK         0.0840 
    111 H111       28.6738  -43.9812  -49.6917 H         1 UNK         0.0840 
    112 H112       28.7527  -49.0629  -51.0686 H         1 UNK         0.2987 
    113 H113       30.5874  -50.4670  -51.0116 H         1 UNK         0.0785 
    114 H114       28.5336  -51.8288  -51.5467 H         1 UNK         0.0798 
    115 H115       29.9566  -52.8543  -51.5061 H         1 UNK         0.0798 
    116 H116       29.2680  -52.3677  -53.0528 H         1 UNK         0.0798 
    117 H117       31.6889  -50.7590  -53.6711 H         1 UNK         0.3079 
    118 H118       34.8499  -51.4397  -52.3993 H         1 UNK         0.0794 
    119 H119       35.1318  -53.3828  -53.9239 H         1 UNK         0.0786 
    120 H120       33.3825  -53.6006  -54.0104 H         1 UNK         0.0786 
    121 H121       34.2338  -53.8612  -52.4947 H         1 UNK         0.0786 
    122 H122       33.9625  -51.4532  -55.1036 H         1 UNK         0.3032 
    123 H123       34.9034  -49.2043  -56.1948 H         1 UNK         0.1094 
    124 H124       31.8457  -49.3438  -55.8835 H         1 UNK         0.0794 
    125 H125       32.6337  -48.8989  -57.3930 H         1 UNK         0.0794 
    126 H126       32.8578  -50.5013  -56.7315 H         1 UNK         0.0794 
    127 H127       33.8036  -47.2429  -54.5005 H         1 UNK         0.3016 
@<TRIPOS>BOND
     1    1    2 1    
     2    1   67 1    
     3    1   68 1    
     4    1   69 1    
     5    2    3 2    
     6    2    4 am   BACKBONE|DICT|INTERRES
     7    4    5 1    
     8    4   70 1    
     9    5    6 1    
    10    5   65 1    
    11    5   71 1    
    12    6    7 1    
    13    6   72 1    
    14    6   73 1    
    15    7    8 1    
    16    8    9 1    
    17    8   74 1    
    18    8   75 1    
    19    9   10 ar   
    20    9   14 ar   
    21   10   11 ar   
    22   10   76 1    
    23   11   12 ar   
    24   11   48 1    
    25   12   13 ar   
    26   12   77 1    
    27   13   14 ar   
    28   13   15 1    
    29   14   78 1    
    30   15   16 1    
    31   15   79 1    
    32   15   80 1    
    33   16   17 1    
    34   17   18 1    
    35   17   81 1    
    36   17   82 1    
    37   18   19 1    
    38   18   22 1    
    39   18   83 1    
    40   19   20 am   BACKBONE|DICT|INTERRES
    41   19   21 2    
    42   20   84 1    
    43   20   85 1    
    44   22   23 am   BACKBONE|DICT|INTERRES
    45   22   86 1    
    46   23   24 2    
    47   23   25 1    
    48   25   26 1    
    49   25   27 1    
    50   25   87 1    
    51   26   88 1    
    52   26   89 1    
    53   26   90 1    
    54   27   28 am   BACKBONE|DICT|INTERRES
    55   27   91 1    
    56   28   29 2    
    57   28   30 1    
    58   30   31 1    
    59   30   32 1    
    60   30   92 1    
    61   31   93 1    
    62   31   94 1    
    63   31   95 1    
    64   32   33 am   BACKBONE|DICT|INTERRES
    65   32   96 1    
    66   33   34 2    
    67   33   35 1    
    68   35   36 1    
    69   35   37 1    
    70   35   97 1    
    71   36   98 1    
    72   36   99 1    
    73   36  100 1    
    74   37   38 am   BACKBONE|DICT|INTERRES
    75   37  101 1    
    76   38   39 2    
    77   38   40 1    
    78   40   41 1    
    79   40   42 1    
    80   40  102 1    
    81   41  103 1    
    82   41  104 1    
    83   41  105 1    
    84   42   43 am   BACKBONE|DICT|INTERRES
    85   42  106 1    
    86   43   44 2    
    87   43   45 1    
    88   45   46 1    
    89   45   49 1    
    90   45  107 1    
    91   46   47 1    
    92   46  108 1    
    93   46  109 1    
    94   47   48 1    
    95   48  110 1    
    96   48  111 1    
    97   49   50 am   BACKBONE|DICT|INTERRES
    98   49  112 1    
    99   50   51 2    
   100   50   52 1    
   101   52   53 1    
   102   52   54 1    
   103   52  113 1    
   104   53  114 1    
   105   53  115 1    
   106   53  116 1    
   107   54   55 am   BACKBONE|DICT|INTERRES
   108   54  117 1    
   109   55   56 2    
   110   55   57 1    
   111   57   58 1    
   112   57   59 1    
   113   57  118 1    
   114   58  119 1    
   115   58  120 1    
   116   58  121 1    
   117   59   60 am   BACKBONE|DICT|INTERRES
   118   59  122 1    
   119   60   61 2    
   120   60   62 1    
   121   62   63 1    
   122   62   64 1    
   123   62  123 1    
   124   63  124 1    
   125   63  125 1    
   126   63  126 1    
   127   64   65 am   BACKBONE|DICT|INTERRES
   128   64  127 1    
   129   65   66 2    
@<TRIPOS>SUBSTRUCTURE
     1 UNK         1 GROUP             0       ****    0 ROOT    
