@<TRIPOS>MOLECULE
3R134
127   129    1
SMALL
USER_CHARGES


@<TRIPOS>ATOM
      1 CA         37.7472  -45.9547  -51.8876 C.3       0 UNK        -0.1968 
      2 C          36.2785  -45.6442  -52.1315 C.2       0 UNK         0.4852 
      3 O          35.5297  -46.5227  -52.5571 O.2       0 UNK        -0.5359 
      4 N          35.8493  -44.4089  -51.8402 N.am      1 UNK        -0.4300 
      5 CA         34.4921  -43.8941  -52.0845 C.3       1 UNK         0.0863 
      6 C6         34.4559  -42.3429  -52.0451 C.3       11 UNK        -0.0953 
      7 S7         35.4479  -41.6121  -53.3963 S.3       11 UNK        -0.2369 
      8 C8         34.1834  -41.2573  -54.6663 C.3       11 UNK         0.0226 
      9 C9         33.3646  -42.4937  -55.0099 C.ar      11 UNK        -0.0699 
     10 C10        33.9116  -43.5124  -55.7969 C.ar      11 UNK        -0.0804 
     11 C11        33.2083  -44.7019  -56.0232 C.ar      11 UNK        -0.0871 
     12 C12        31.9355  -44.8501  -55.4542 C.ar      11 UNK        -0.1008 
     13 C13        31.3624  -43.8227  -54.7018 C.ar      11 UNK        -0.0735 
     14 C14        32.0771  -42.6434  -54.4896 C.ar      11 UNK        -0.0945 
     15 C15        29.9809  -43.9987  -54.0953 C.3       11 UNK         0.0169 
     16 S16        28.6856  -43.5781  -55.2998 S.3       11 UNK        -0.2669 
     17 C17        27.1906  -43.7859  -54.2736 C.3       11 UNK        -0.0850 
     18 CA         26.6924  -45.2585  -54.2139 C.3       10 UNK         0.0855 
     19 C          25.5115  -45.4559  -53.2128 C.2       10 UNK         0.5543 
     20 N          24.5579  -46.3447  -53.4707 N.am      10 UNK        -0.7343 
     21 O          25.4740  -44.8171  -52.1641 O.2       10 UNK        -0.5027 
     22 N          26.4760  -45.8595  -55.5403 N.am      10 UNK        -0.4495 
     23 C          25.5568  -45.5008  -56.4481 C.2       10 UNK         0.4903 
     24 O          24.8231  -44.5176  -56.3447 O.2       10 UNK        -0.4860 
     25 CA         25.3974  -46.4348  -57.6631 C.3       9 UNK         0.0227 
     26 CB         26.1696  -45.8844  -58.8706 C.3       9 UNK        -0.1964 
     27 N          25.8269  -47.8120  -57.3841 N.am      9 UNK        -0.4231 
     28 C          25.2127  -48.6286  -56.5137 C.2       9 UNK         0.5014 
     29 O          24.1810  -48.3224  -55.9115 O.2       9 UNK        -0.5270 
     30 CA         25.9049  -49.9693  -56.2087 C.3       8 UNK         0.0284 
     31 CB         25.0170  -50.9401  -55.3992 C.3       8 UNK        -0.1977 
     32 N          26.4669  -50.6294  -57.3918 N.am      8 UNK        -0.4342 
     33 C          25.7906  -51.0953  -58.4526 C.2       8 UNK         0.5039 
     34 O          24.5676  -51.0143  -58.5858 O.2       8 UNK        -0.5547 
     35 CA         26.6447  -51.7682  -59.5442 C.3       7 UNK         0.0281 
     36 CB         25.8082  -52.3214  -60.7190 C.3       7 UNK        -0.1963 
     37 N          27.7136  -50.8866  -60.0277 N.am      7 UNK        -0.4444 
     38 C          27.5769  -49.6942  -60.6285 C.2       7 UNK         0.5104 
     39 O          26.4962  -49.1773  -60.9149 O.2       7 UNK        -0.5100 
     40 CA         28.8952  -48.9564  -60.9408 C.3       6 UNK         0.0396 
     41 CB         28.6828  -47.5058  -61.4209 C.3       6 UNK        -0.1801 
     42 N          29.8556  -48.9906  -59.8284 N.am      6 UNK        -0.4747 
     43 C          29.6436  -48.5830  -58.5666 C.2       6 UNK         0.5012 
     44 O          28.5722  -48.1293  -58.1546 O.2       6 UNK        -0.5003 
     45 CA         30.8508  -48.6864  -57.6126 C.3       5 UNK         0.0782 
     46 C46        31.7610  -47.4450  -57.7870 C.3       11 UNK        -0.0868 
     47 S47        33.2187  -47.4790  -56.6903 S.3       11 UNK        -0.2515 
     48 C48        33.8675  -45.7820  -56.8869 C.3       11 UNK         0.0199 
     49 N          30.4450  -48.8956  -56.2162 N.am      5 UNK        -0.4607 
     50 C          29.7399  -49.9368  -55.7571 C.2       4 UNK         0.5031 
     51 O          29.3038  -50.8355  -56.4818 O.2       4 UNK        -0.5119 
     52 CA         29.4942  -49.9860  -54.2349 C.3       4 UNK         0.0263 
     53 CB         28.7523  -51.2638  -53.7958 C.3       4 UNK        -0.1967 
     54 N          30.7437  -49.8999  -53.4750 N.am      4 UNK        -0.4237 
     55 C          31.3994  -48.7744  -53.1671 C.2       3 UNK         0.4908 
     56 O          31.0369  -47.6519  -53.5254 O.2       3 UNK        -0.5102 
     57 CA         32.7057  -48.9618  -52.3764 C.3       3 UNK         0.0241 
     58 CB         33.8809  -49.2022  -53.3367 C.3       3 UNK        -0.1971 
     59 N          33.0192  -47.8245  -51.5077 N.am      3 UNK        -0.4139 
     60 C          32.3394  -47.5059  -50.3940 C.2       2 UNK         0.5016 
     61 O          31.3704  -48.1480  -49.9849 O.2       2 UNK        -0.5319 
     62 CA         32.8298  -46.3019  -49.5619 C.3       2 UNK         0.0286 
     63 CB         33.5178  -46.7832  -48.2733 C.3       2 UNK        -0.1963 
     64 N          33.7572  -45.4384  -50.2946 N.am      2 UNK        -0.4790 
     65 C          33.3875  -44.5261  -51.2031 C.2       1 UNK         0.5024 
     66 O          32.2136  -44.1980  -51.3768 O.2       1 UNK        -0.4888 
     67 H67        38.2867  -45.0937  -51.4932 H         1 UNK         0.0892 
     68 H68        37.8445  -46.7731  -51.1748 H         1 UNK         0.0892 
     69 H69        38.2243  -46.2561  -52.8197 H         1 UNK         0.0892 
     70 H70        36.5073  -43.7301  -51.4840 H         1 UNK         0.3107 
     71 H71        34.2291  -44.2093  -53.0945 H         1 UNK         0.0773 
     72 H72        33.4369  -41.9599  -52.1153 H         1 UNK         0.0680 
     73 H73        34.8431  -41.9784  -51.0922 H         1 UNK         0.0680 
     74 H74        33.5377  -40.4525  -54.3115 H         1 UNK         0.0650 
     75 H75        34.6762  -40.8827  -55.5645 H         1 UNK         0.0650 
     76 H76        34.9060  -43.3893  -56.2047 H         1 UNK         0.1397 
     77 H77        31.3723  -45.7617  -55.5795 H         1 UNK         0.1363 
     78 H78        31.6443  -41.8586  -53.8845 H         1 UNK         0.1355 
     79 H79        29.8773  -43.3727  -53.2075 H         1 UNK         0.0707 
     80 H80        29.8534  -45.0300  -53.7620 H         1 UNK         0.0707 
     81 H81        26.4087  -43.1377  -54.6720 H         1 UNK         0.1034 
     82 H82        27.4041  -43.4081  -53.2720 H         1 UNK         0.1034 
     83 H83        27.5013  -45.8452  -53.7775 H         1 UNK         0.0482 
     84 H84        24.5571  -46.8814  -54.3285 H         1 UNK         0.3460 
     85 H85        23.8104  -46.4656  -52.8060 H         1 UNK         0.3460 
     86 H86        27.0387  -46.6711  -55.7452 H         1 UNK         0.2989 
     87 H87        24.3370  -46.4624  -57.9222 H         1 UNK         0.0559 
     88 H88        26.0300  -46.5155  -59.7484 H         1 UNK         0.0848 
     89 H89        27.2388  -45.8150  -58.6667 H         1 UNK         0.0848 
     90 H90        25.8231  -44.8837  -59.1317 H         1 UNK         0.0848 
     91 H91        26.7089  -48.1049  -57.8006 H         1 UNK         0.3144 
     92 H92        26.7546  -49.7085  -55.5796 H         1 UNK         0.0727 
     93 H93        25.5346  -51.8763  -55.1913 H         1 UNK         0.0790 
     94 H94        24.0934  -51.1792  -55.9272 H         1 UNK         0.0790 
     95 H95        24.7372  -50.5051  -54.4389 H         1 UNK         0.0790 
     96 H96        27.4777  -50.7376  -57.3787 H         1 UNK         0.3215 
     97 H97        27.1354  -52.6182  -59.0668 H         1 UNK         0.0863 
     98 H98        26.4386  -52.8193  -61.4556 H         1 UNK         0.0808 
     99 H99        25.2514  -51.5353  -61.2301 H         1 UNK         0.0808 
    100 H100       25.0813  -53.0542  -60.3665 H         1 UNK         0.0808 
    101 H101       28.6556  -51.1934  -59.8270 H         1 UNK         0.3118 
    102 H102       29.3557  -49.5057  -61.7634 H         1 UNK         0.0546 
    103 H103       28.2458  -46.8821  -60.6428 H         1 UNK         0.0828 
    104 H104       28.0161  -47.4686  -62.2834 H         1 UNK         0.0828 
    105 H105       29.6246  -47.0481  -61.7229 H         1 UNK         0.0828 
    106 H106       30.7697  -49.3530  -60.0652 H         1 UNK         0.3005 
    107 H107       31.4225  -49.5721  -57.8988 H         1 UNK         0.1257 
    108 H108       32.1274  -47.3858  -58.8138 H         1 UNK         0.0775 
    109 H109       31.1947  -46.5274  -57.6227 H         1 UNK         0.0775 
    110 H110       34.9319  -45.8183  -56.6491 H         1 UNK         0.0840 
    111 H111       33.7998  -45.4896  -57.9355 H         1 UNK         0.0840 
    112 H112       30.7689  -48.2085  -55.5452 H         1 UNK         0.2987 
    113 H113       28.8651  -49.1294  -53.9829 H         1 UNK         0.0785 
    114 H114       28.5379  -51.2497  -52.7270 H         1 UNK         0.0798 
    115 H115       29.3346  -52.1612  -54.0091 H         1 UNK         0.0798 
    116 H116       27.7987  -51.3713  -54.3105 H         1 UNK         0.0798 
    117 H117       31.1430  -50.7811  -53.1846 H         1 UNK         0.3079 
    118 H118       32.5981  -49.8427  -51.7397 H         1 UNK         0.0794 
    119 H119       33.6902  -50.0497  -53.9963 H         1 UNK         0.0786 
    120 H120       34.8013  -49.4141  -52.7923 H         1 UNK         0.0786 
    121 H121       34.0629  -48.3322  -53.9683 H         1 UNK         0.0786 
    122 H122       33.7985  -47.2413  -51.7978 H         1 UNK         0.3032 
    123 H123       31.9475  -45.7211  -49.2824 H         1 UNK         0.1094 
    124 H124       32.8451  -47.4045  -47.6802 H         1 UNK         0.0794 
    125 H125       34.4066  -47.3782  -48.4873 H         1 UNK         0.0794 
    126 H126       33.8173  -45.9436  -47.6457 H         1 UNK         0.0794 
    127 H127       34.7408  -45.6529  -50.2158 H         1 UNK         0.3016 
@<TRIPOS>BOND
     1    1    2 1    
     2    1   67 1    
     3    1   68 1    
     4    1   69 1    
     5    2    3 2    
     6    2    4 am   BACKBONE|DICT|INTERRES
     7    4    5 1    
     8    4   70 1    
     9    5    6 1    
    10    5   65 1    
    11    5   71 1    
    12    6    7 1    
    13    6   72 1    
    14    6   73 1    
    15    7    8 1    
    16    8    9 1    
    17    8   74 1    
    18    8   75 1    
    19    9   10 ar   
    20    9   14 ar   
    21   10   11 ar   
    22   10   76 1    
    23   11   12 ar   
    24   11   48 1    
    25   12   13 ar   
    26   12   77 1    
    27   13   14 ar   
    28   13   15 1    
    29   14   78 1    
    30   15   16 1    
    31   15   79 1    
    32   15   80 1    
    33   16   17 1    
    34   17   18 1    
    35   17   81 1    
    36   17   82 1    
    37   18   19 1    
    38   18   22 1    
    39   18   83 1    
    40   19   20 am   BACKBONE|DICT|INTERRES
    41   19   21 2    
    42   20   84 1    
    43   20   85 1    
    44   22   23 am   BACKBONE|DICT|INTERRES
    45   22   86 1    
    46   23   24 2    
    47   23   25 1    
    48   25   26 1    
    49   25   27 1    
    50   25   87 1    
    51   26   88 1    
    52   26   89 1    
    53   26   90 1    
    54   27   28 am   BACKBONE|DICT|INTERRES
    55   27   91 1    
    56   28   29 2    
    57   28   30 1    
    58   30   31 1    
    59   30   32 1    
    60   30   92 1    
    61   31   93 1    
    62   31   94 1    
    63   31   95 1    
    64   32   33 am   BACKBONE|DICT|INTERRES
    65   32   96 1    
    66   33   34 2    
    67   33   35 1    
    68   35   36 1    
    69   35   37 1    
    70   35   97 1    
    71   36   98 1    
    72   36   99 1    
    73   36  100 1    
    74   37   38 am   BACKBONE|DICT|INTERRES
    75   37  101 1    
    76   38   39 2    
    77   38   40 1    
    78   40   41 1    
    79   40   42 1    
    80   40  102 1    
    81   41  103 1    
    82   41  104 1    
    83   41  105 1    
    84   42   43 am   BACKBONE|DICT|INTERRES
    85   42  106 1    
    86   43   44 2    
    87   43   45 1    
    88   45   46 1    
    89   45   49 1    
    90   45  107 1    
    91   46   47 1    
    92   46  108 1    
    93   46  109 1    
    94   47   48 1    
    95   48  110 1    
    96   48  111 1    
    97   49   50 am   BACKBONE|DICT|INTERRES
    98   49  112 1    
    99   50   51 2    
   100   50   52 1    
   101   52   53 1    
   102   52   54 1    
   103   52  113 1    
   104   53  114 1    
   105   53  115 1    
   106   53  116 1    
   107   54   55 am   BACKBONE|DICT|INTERRES
   108   54  117 1    
   109   55   56 2    
   110   55   57 1    
   111   57   58 1    
   112   57   59 1    
   113   57  118 1    
   114   58  119 1    
   115   58  120 1    
   116   58  121 1    
   117   59   60 am   BACKBONE|DICT|INTERRES
   118   59  122 1    
   119   60   61 2    
   120   60   62 1    
   121   62   63 1    
   122   62   64 1    
   123   62  123 1    
   124   63  124 1    
   125   63  125 1    
   126   63  126 1    
   127   64   65 am   BACKBONE|DICT|INTERRES
   128   64  127 1    
   129   65   66 2    
@<TRIPOS>SUBSTRUCTURE
     1 UNK         1 GROUP             0       ****    0 ROOT    
