@<TRIPOS>MOLECULE
3R134
127   129    1
SMALL
USER_CHARGES


@<TRIPOS>ATOM
      1 CA         29.6278  -45.0244  -52.6380 C.3       0 UNK        -0.1968 
      2 C          31.1311  -45.2391  -52.6969 C.2       0 UNK         0.4852 
      3 O          31.6226  -45.8438  -53.6460 O.2       0 UNK        -0.5359 
      4 N          31.8601  -44.7473  -51.6864 N.am      1 UNK        -0.4300 
      5 CA         33.3269  -44.7188  -51.5541 C.3       1 UNK         0.0863 
      6 C6         34.0486  -43.9284  -52.6780 C.3       11 UNK        -0.0953 
      7 S7         33.4973  -42.1901  -52.7784 S.3       11 UNK        -0.2369 
      8 C8         33.6237  -41.8560  -54.5638 C.3       11 UNK         0.0226 
      9 C9         32.3310  -42.1681  -55.3058 C.ar      11 UNK        -0.0699 
     10 C10        32.0952  -43.4502  -55.8086 C.ar      11 UNK        -0.0804 
     11 C11        30.9271  -43.7280  -56.5229 C.ar      11 UNK        -0.0871 
     12 C12        30.0007  -42.7081  -56.7469 C.ar      11 UNK        -0.1008 
     13 C13        30.1987  -41.4269  -56.2189 C.ar      11 UNK        -0.0735 
     14 C14        31.3749  -41.1659  -55.5067 C.ar      11 UNK        -0.0945 
     15 C15        29.1832  -40.2986  -56.4166 C.3       11 UNK         0.0169 
     16 S16        27.4706  -40.8328  -56.7817 S.3       11 UNK        -0.2669 
     17 C17        26.8836  -41.4539  -55.1635 C.3       11 UNK        -0.0850 
     18 CA         26.9761  -42.9973  -54.9901 C.3       10 UNK         0.0855 
     19 C          26.4009  -43.4419  -53.6126 C.2       10 UNK         0.5543 
     20 N          25.4601  -44.3756  -53.5506 N.am      10 UNK        -0.7343 
     21 O          26.8188  -42.9279  -52.5784 O.2       10 UNK        -0.5027 
     22 N          26.4372  -43.7244  -56.1552 N.am      10 UNK        -0.4495 
     23 C          26.8018  -44.9596  -56.5197 C.2       10 UNK         0.4903 
     24 O          27.5844  -45.6590  -55.8806 O.2       10 UNK        -0.4860 
     25 CA         26.2192  -45.4766  -57.8405 C.3       9 UNK         0.0227 
     26 CB         26.7381  -44.6434  -59.0324 C.3       9 UNK        -0.1964 
     27 N          26.5594  -46.8886  -58.0404 N.am      9 UNK        -0.4231 
     28 C          25.9055  -47.7133  -58.8708 C.2       9 UNK         0.5014 
     29 O          24.8935  -47.3870  -59.4937 O.2       9 UNK        -0.5270 
     30 CA         26.4662  -49.1287  -59.0744 C.3       8 UNK         0.0284 
     31 CB         27.6516  -49.0987  -60.0548 C.3       8 UNK        -0.1977 
     32 N          26.8912  -49.7477  -57.8192 N.am      8 UNK        -0.4342 
     33 C          26.2107  -50.7008  -57.1663 C.2       8 UNK         0.5039 
     34 O          25.1221  -51.1397  -57.5412 O.2       8 UNK        -0.5547 
     35 CA         26.8445  -51.2966  -55.8923 C.3       7 UNK         0.0281 
     36 CB         27.5125  -52.6446  -56.2096 C.3       7 UNK        -0.1963 
     37 N          27.8298  -50.4253  -55.2530 N.am      7 UNK        -0.4444 
     38 C          27.5528  -49.2529  -54.6681 C.2       7 UNK         0.5104 
     39 O          26.4125  -48.8162  -54.5117 O.2       7 UNK        -0.5100 
     40 CA         28.7579  -48.4191  -54.2032 C.3       6 UNK         0.0396 
     41 CB         29.0814  -48.7400  -52.7368 C.3       6 UNK        -0.1801 
     42 N          29.9671  -48.5901  -55.0197 N.am      6 UNK        -0.4747 
     43 C          30.0678  -48.4122  -56.3474 C.2       6 UNK         0.5012 
     44 O          29.1103  -48.1552  -57.0782 O.2       6 UNK        -0.5003 
     45 CA         31.4662  -48.5829  -56.9714 C.3       5 UNK         0.0782 
     46 C46        32.3612  -47.3325  -56.7738 C.3       11 UNK        -0.0868 
     47 S47        31.9423  -45.9606  -57.9030 S.3       11 UNK        -0.2515 
     48 C48        30.6017  -45.1419  -56.9775 C.3       11 UNK         0.0199 
     49 N          32.0974  -49.7854  -56.4297 N.am      5 UNK        -0.4607 
     50 C          31.9431  -51.0134  -56.9401 C.2       4 UNK         0.5031 
     51 O          31.3216  -51.2507  -57.9759 O.2       4 UNK        -0.5119 
     52 CA         32.5829  -52.1813  -56.1681 C.3       4 UNK         0.0263 
     53 CB         33.9916  -52.4736  -56.7096 C.3       4 UNK        -0.1967 
     54 N          32.6574  -51.9600  -54.7215 N.am      4 UNK        -0.4237 
     55 C          31.5953  -51.8740  -53.9084 C.2       3 UNK         0.4908 
     56 O          30.4275  -51.9786  -54.2869 O.2       3 UNK        -0.5102 
     57 CA         31.8868  -51.5918  -52.4230 C.3       3 UNK         0.0241 
     58 CB         32.2024  -52.9027  -51.6842 C.3       3 UNK        -0.1971 
     59 N          32.9529  -50.6127  -52.1583 N.am      3 UNK        -0.4139 
     60 C          33.0458  -49.3850  -52.6897 C.2       2 UNK         0.5016 
     61 O          32.3303  -48.9731  -53.6036 O.2       2 UNK        -0.5319 
     62 CA         34.1358  -48.4659  -52.1333 C.3       2 UNK         0.0286 
     63 CB         35.4284  -48.5904  -52.9579 C.3       2 UNK        -0.1963 
     64 N          33.6479  -47.0891  -52.1845 N.am      2 UNK        -0.4790 
     65 C          33.9798  -46.1048  -51.3437 C.2       1 UNK         0.5024 
     66 O          34.7761  -46.2543  -50.4153 O.2       1 UNK        -0.4888 
     67 H67        29.3825  -44.0709  -52.1709 H         1 UNK         0.0892 
     68 H68        29.2111  -45.0215  -53.6450 H         1 UNK         0.0892 
     69 H69        29.1478  -45.8216  -52.0727 H         1 UNK         0.0892 
     70 H70        31.3714  -44.2947  -50.9268 H         1 UNK         0.3107 
     71 H71        33.5050  -44.1738  -50.6254 H         1 UNK         0.0773 
     72 H72        33.9070  -44.4202  -53.6402 H         1 UNK         0.0680 
     73 H73        35.1261  -43.9155  -52.5032 H         1 UNK         0.0680 
     74 H74        34.4541  -42.4202  -54.9912 H         1 UNK         0.0650 
     75 H75        33.8774  -40.8036  -54.6992 H         1 UNK         0.0650 
     76 H76        32.8100  -44.2415  -55.6327 H         1 UNK         0.1397 
     77 H77        29.1027  -42.9315  -57.3042 H         1 UNK         0.1363 
     78 H78        31.5511  -40.1754  -55.1094 H         1 UNK         0.1355 
     79 H79        29.1674  -39.6515  -55.5382 H         1 UNK         0.0707 
     80 H80        29.5274  -39.6795  -57.2460 H         1 UNK         0.0707 
     81 H81        27.4396  -40.9510  -54.3699 H         1 UNK         0.1034 
     82 H82        25.8477  -41.1297  -55.0483 H         1 UNK         0.1034 
     83 H83        28.0376  -43.2393  -54.9303 H         1 UNK         0.0482 
     84 H84        25.0978  -44.6551  -52.6530 H         1 UNK         0.3460 
     85 H85        25.1261  -44.8166  -54.3919 H         1 UNK         0.3460 
     86 H86        25.7876  -43.2099  -56.7315 H         1 UNK         0.2989 
     87 H87        25.1335  -45.3793  -57.7754 H         1 UNK         0.0559 
     88 H88        26.5132  -43.5831  -58.9121 H         1 UNK         0.0848 
     89 H89        26.2789  -44.9580  -59.9695 H         1 UNK         0.0848 
     90 H90        27.8186  -44.7358  -59.1459 H         1 UNK         0.0848 
     91 H91        27.3740  -47.2157  -57.5246 H         1 UNK         0.3144 
     92 H92        25.6787  -49.7283  -59.5362 H         1 UNK         0.0727 
     93 H93        28.0268  -50.1030  -60.2521 H         1 UNK         0.0790 
     94 H94        28.4813  -48.5010  -59.6758 H         1 UNK         0.0790 
     95 H95        27.3535  -48.6701  -61.0126 H         1 UNK         0.0790 
     96 H96        27.7564  -49.3927  -57.4186 H         1 UNK         0.3215 
     97 H97        26.0374  -51.4712  -55.1775 H         1 UNK         0.0863 
     98 H98        27.8940  -53.1209  -55.3060 H         1 UNK         0.0808 
     99 H99        28.3468  -52.5269  -56.9028 H         1 UNK         0.0808 
    100 H100       26.8028  -53.3364  -56.6653 H         1 UNK         0.0808 
    101 H101       28.7962  -50.7303  -55.2701 H         1 UNK         0.3118 
    102 H102       28.4809  -47.3676  -54.2601 H         1 UNK         0.0546 
    103 H103       29.2813  -49.8014  -52.5985 H         1 UNK         0.0828 
    104 H104       28.2429  -48.4810  -52.0892 H         1 UNK         0.0828 
    105 H105       29.9501  -48.1841  -52.3846 H         1 UNK         0.0828 
    106 H106       30.8284  -48.7631  -54.5005 H         1 UNK         0.3005 
    107 H107       31.3236  -48.7218  -58.0461 H         1 UNK         0.1257 
    108 H108       33.3988  -47.5941  -56.9865 H         1 UNK         0.0775 
    109 H109       32.3593  -46.9916  -55.7392 H         1 UNK         0.0775 
    110 H110       29.7116  -45.1534  -57.6067 H         1 UNK         0.0840 
    111 H111       30.3425  -45.7066  -56.0830 H         1 UNK         0.0840 
    112 H112       32.5482  -49.6802  -55.5279 H         1 UNK         0.2987 
    113 H113       31.9611  -53.0630  -56.3383 H         1 UNK         0.0785 
    114 H114       33.9640  -52.6684  -57.7828 H         1 UNK         0.0798 
    115 H115       34.4256  -53.3535  -56.2343 H         1 UNK         0.0798 
    116 H116       34.6692  -51.6341  -56.5484 H         1 UNK         0.0798 
    117 H117       33.5773  -51.8508  -54.3202 H         1 UNK         0.3079 
    118 H118       30.9735  -51.1840  -51.9894 H         1 UNK         0.0794 
    119 H119       32.2735  -52.7457  -50.6077 H         1 UNK         0.0786 
    120 H120       33.1415  -53.3425  -52.0227 H         1 UNK         0.0786 
    121 H121       31.4179  -53.6431  -51.8487 H         1 UNK         0.0786 
    122 H122       33.6121  -50.8681  -51.4369 H         1 UNK         0.3032 
    123 H123       34.3327  -48.7443  -51.0954 H         1 UNK         0.1094 
    124 H124       35.2663  -48.3155  -54.0012 H         1 UNK         0.0794 
    125 H125       36.2146  -47.9474  -52.5617 H         1 UNK         0.0794 
    126 H126       35.8082  -49.6127  -52.9427 H         1 UNK         0.0794 
    127 H127       32.9353  -46.8993  -52.8920 H         1 UNK         0.3016 
@<TRIPOS>BOND
     1    1    2 1    
     2    1   67 1    
     3    1   68 1    
     4    1   69 1    
     5    2    3 2    
     6    2    4 am   BACKBONE|DICT|INTERRES
     7    4    5 1    
     8    4   70 1    
     9    5    6 1    
    10    5   65 1    
    11    5   71 1    
    12    6    7 1    
    13    6   72 1    
    14    6   73 1    
    15    7    8 1    
    16    8    9 1    
    17    8   74 1    
    18    8   75 1    
    19    9   10 ar   
    20    9   14 ar   
    21   10   11 ar   
    22   10   76 1    
    23   11   12 ar   
    24   11   48 1    
    25   12   13 ar   
    26   12   77 1    
    27   13   14 ar   
    28   13   15 1    
    29   14   78 1    
    30   15   16 1    
    31   15   79 1    
    32   15   80 1    
    33   16   17 1    
    34   17   18 1    
    35   17   81 1    
    36   17   82 1    
    37   18   19 1    
    38   18   22 1    
    39   18   83 1    
    40   19   20 am   BACKBONE|DICT|INTERRES
    41   19   21 2    
    42   20   84 1    
    43   20   85 1    
    44   22   23 am   BACKBONE|DICT|INTERRES
    45   22   86 1    
    46   23   24 2    
    47   23   25 1    
    48   25   26 1    
    49   25   27 1    
    50   25   87 1    
    51   26   88 1    
    52   26   89 1    
    53   26   90 1    
    54   27   28 am   BACKBONE|DICT|INTERRES
    55   27   91 1    
    56   28   29 2    
    57   28   30 1    
    58   30   31 1    
    59   30   32 1    
    60   30   92 1    
    61   31   93 1    
    62   31   94 1    
    63   31   95 1    
    64   32   33 am   BACKBONE|DICT|INTERRES
    65   32   96 1    
    66   33   34 2    
    67   33   35 1    
    68   35   36 1    
    69   35   37 1    
    70   35   97 1    
    71   36   98 1    
    72   36   99 1    
    73   36  100 1    
    74   37   38 am   BACKBONE|DICT|INTERRES
    75   37  101 1    
    76   38   39 2    
    77   38   40 1    
    78   40   41 1    
    79   40   42 1    
    80   40  102 1    
    81   41  103 1    
    82   41  104 1    
    83   41  105 1    
    84   42   43 am   BACKBONE|DICT|INTERRES
    85   42  106 1    
    86   43   44 2    
    87   43   45 1    
    88   45   46 1    
    89   45   49 1    
    90   45  107 1    
    91   46   47 1    
    92   46  108 1    
    93   46  109 1    
    94   47   48 1    
    95   48  110 1    
    96   48  111 1    
    97   49   50 am   BACKBONE|DICT|INTERRES
    98   49  112 1    
    99   50   51 2    
   100   50   52 1    
   101   52   53 1    
   102   52   54 1    
   103   52  113 1    
   104   53  114 1    
   105   53  115 1    
   106   53  116 1    
   107   54   55 am   BACKBONE|DICT|INTERRES
   108   54  117 1    
   109   55   56 2    
   110   55   57 1    
   111   57   58 1    
   112   57   59 1    
   113   57  118 1    
   114   58  119 1    
   115   58  120 1    
   116   58  121 1    
   117   59   60 am   BACKBONE|DICT|INTERRES
   118   59  122 1    
   119   60   61 2    
   120   60   62 1    
   121   62   63 1    
   122   62   64 1    
   123   62  123 1    
   124   63  124 1    
   125   63  125 1    
   126   63  126 1    
   127   64   65 am   BACKBONE|DICT|INTERRES
   128   64  127 1    
   129   65   66 2    
@<TRIPOS>SUBSTRUCTURE
     1 UNK         1 GROUP             0       ****    0 ROOT    
