@<TRIPOS>MOLECULE
3R134
127   129    1
SMALL
USER_CHARGES


@<TRIPOS>ATOM
      1 CA         29.5192  -44.8886  -49.0660 C.3       0 UNK        -0.1968 
      2 C          30.9675  -45.3505  -49.1372 C.2       0 UNK         0.4852 
      3 O          31.5824  -45.5989  -48.0985 O.2       0 UNK        -0.5359 
      4 N          31.5158  -45.4601  -50.3535 N.am      1 UNK        -0.4300 
      5 CA         32.8712  -45.9516  -50.6193 C.3       1 UNK         0.0863 
      6 C6         33.3819  -45.5355  -52.0233 C.3       11 UNK        -0.0953 
      7 S7         33.4631  -43.7263  -52.2398 S.3       11 UNK        -0.2369 
      8 C8         31.9128  -43.3747  -53.1443 C.3       11 UNK         0.0226 
      9 C9         31.9160  -43.6469  -54.6517 C.ar      11 UNK        -0.0699 
     10 C10        32.9600  -44.3057  -55.3172 C.ar      11 UNK        -0.0804 
     11 C11        32.9121  -44.5063  -56.7010 C.ar      11 UNK        -0.0871 
     12 C12        31.8119  -44.0453  -57.4273 C.ar      11 UNK        -0.1008 
     13 C13        30.7633  -43.3884  -56.7798 C.ar      11 UNK        -0.0735 
     14 C14        30.8185  -43.2009  -55.3961 C.ar      11 UNK        -0.0945 
     15 C15        29.5813  -42.8650  -57.5796 C.3       11 UNK         0.0169 
     16 S16        28.4003  -44.1959  -57.9325 S.3       11 UNK        -0.2669 
     17 C17        27.0865  -43.2870  -58.8198 C.3       11 UNK        -0.0850 
     18 CA         25.8111  -43.0601  -57.9636 C.3       10 UNK         0.0855 
     19 C          24.7136  -42.3532  -58.8115 C.2       10 UNK         0.5543 
     20 N          23.6323  -43.0249  -59.1892 N.am      10 UNK        -0.7343 
     21 O          24.8523  -41.1759  -59.1333 O.2       10 UNK        -0.5027 
     22 N          25.3908  -44.3063  -57.3088 N.am      10 UNK        -0.4495 
     23 C          24.4577  -44.4493  -56.3611 C.2       10 UNK         0.4903 
     24 O          23.8064  -43.5142  -55.8942 O.2       10 UNK        -0.4860 
     25 CA         24.2390  -45.8778  -55.8197 C.3       9 UNK         0.0227 
     26 CB         22.7476  -46.1931  -55.5780 C.3       9 UNK        -0.1964 
     27 N          24.8886  -46.9267  -56.6228 N.am      9 UNK        -0.4231 
     28 C          24.5946  -47.3019  -57.8809 C.2       9 UNK         0.5014 
     29 O          23.6747  -46.8142  -58.5390 O.2       9 UNK        -0.5270 
     30 CA         25.5031  -48.3535  -58.5527 C.3       8 UNK         0.0284 
     31 CB         26.3189  -47.7058  -59.6853 C.3       8 UNK        -0.1977 
     32 N          26.4310  -49.0090  -57.6294 N.am      8 UNK        -0.4342 
     33 C          26.0864  -49.9023  -56.6913 C.2       8 UNK         0.5039 
     34 O          24.9530  -50.3705  -56.5801 O.2       8 UNK        -0.5547 
     35 CA         27.1736  -50.3152  -55.6801 C.3       7 UNK         0.0281 
     36 CB         27.6712  -51.7384  -55.9776 C.3       7 UNK        -0.1963 
     37 N          28.3144  -49.3890  -55.6165 N.am      7 UNK        -0.4444 
     38 C          28.2359  -48.1139  -55.1983 C.2       7 UNK         0.5104 
     39 O          27.1807  -47.5914  -54.8366 O.2       7 UNK        -0.5100 
     40 CA         29.5160  -47.2575  -55.2119 C.3       6 UNK         0.0396 
     41 CB         30.0259  -47.0251  -53.7837 C.3       6 UNK        -0.1801 
     42 N          30.6002  -47.8020  -56.0328 N.am      6 UNK        -0.4747 
     43 C          30.5773  -47.8620  -57.3732 C.2       6 UNK         0.5012 
     44 O          29.6252  -47.4795  -58.0541 O.2       6 UNK        -0.5003 
     45 CA         31.7781  -48.5326  -58.0755 C.3       5 UNK         0.0782 
     46 C46        32.8381  -47.4987  -58.5395 C.3       11 UNK        -0.0868 
     47 S47        34.0130  -46.9950  -57.2311 S.3       11 UNK        -0.2515 
     48 C48        34.0709  -45.1873  -57.4121 C.3       11 UNK         0.0199 
     49 N          32.3758  -49.6248  -57.2975 N.am      5 UNK        -0.4607 
     50 C          31.7340  -50.7131  -56.8558 C.2       4 UNK         0.5031 
     51 O          30.5556  -50.9526  -57.1120 O.2       4 UNK        -0.5119 
     52 CA         32.5144  -51.6877  -55.9559 C.3       4 UNK         0.0263 
     53 CB         32.9363  -52.9294  -56.7579 C.3       4 UNK        -0.1967 
     54 N          33.6949  -51.1191  -55.2926 N.am      4 UNK        -0.4237 
     55 C          33.6833  -50.1129  -54.4069 C.2       3 UNK         0.4908 
     56 O          32.6801  -49.4538  -54.1230 O.2       3 UNK        -0.5102 
     57 CA         35.0375  -49.7661  -53.7653 C.3       3 UNK         0.0241 
     58 CB         35.7461  -48.6541  -54.5536 C.3       3 UNK        -0.1971 
     59 N          34.8822  -49.3328  -52.3782 N.am      3 UNK        -0.4139 
     60 C          34.5439  -50.1256  -51.3521 C.2       2 UNK         0.5016 
     61 O          34.3966  -51.3452  -51.4469 O.2       2 UNK        -0.5319 
     62 CA         34.3554  -49.4479  -49.9810 C.3       2 UNK         0.0286 
     63 CB         35.5922  -49.6725  -49.0952 C.3       2 UNK        -0.1963 
     64 N          34.0909  -48.0071  -50.0793 N.am      2 UNK        -0.4790 
     65 C          32.9199  -47.4848  -50.4689 C.2       1 UNK         0.5024 
     66 O          31.9268  -48.1639  -50.7406 O.2       1 UNK        -0.4888 
     67 H67        28.9056  -45.6520  -48.5882 H         1 UNK         0.0892 
     68 H68        29.4454  -43.9742  -48.4779 H         1 UNK         0.0892 
     69 H69        29.1043  -44.6900  -50.0541 H         1 UNK         0.0892 
     70 H70        30.9498  -45.2824  -51.1683 H         1 UNK         0.3107 
     71 H71        33.5392  -45.5170  -49.8720 H         1 UNK         0.0773 
     72 H72        34.3930  -45.9144  -52.1830 H         1 UNK         0.0680 
     73 H73        32.7762  -45.9773  -52.8135 H         1 UNK         0.0680 
     74 H74        31.6874  -42.3184  -52.9907 H         1 UNK         0.0650 
     75 H75        31.0926  -43.9273  -52.6868 H         1 UNK         0.0650 
     76 H76        33.8217  -44.6630  -54.7728 H         1 UNK         0.1397 
     77 H77        31.7700  -44.1910  -58.4981 H         1 UNK         0.1363 
     78 H78        30.0052  -42.6924  -54.8963 H         1 UNK         0.1355 
     79 H79        29.0746  -42.0660  -57.0358 H         1 UNK         0.0707 
     80 H80        29.9326  -42.4309  -58.5170 H         1 UNK         0.0707 
     81 H81        27.4795  -42.3334  -59.1782 H         1 UNK         0.1034 
     82 H82        26.8413  -43.8619  -59.7151 H         1 UNK         0.1034 
     83 H83        26.0709  -42.3656  -57.1626 H         1 UNK         0.0482 
     84 H84        22.9252  -42.5607  -59.7370 H         1 UNK         0.3460 
     85 H85        23.5185  -43.9926  -58.9278 H         1 UNK         0.3460 
     86 H86        25.8895  -45.1320  -57.6022 H         1 UNK         0.2989 
     87 H87        24.7380  -45.9049  -54.8500 H         1 UNK         0.0559 
     88 H88        22.1583  -46.1020  -56.4907 H         1 UNK         0.0848 
     89 H89        22.3168  -45.5074  -54.8476 H         1 UNK         0.0848 
     90 H90        22.6131  -47.2028  -55.1903 H         1 UNK         0.0848 
     91 H91        25.6833  -47.3659  -56.1664 H         1 UNK         0.3144 
     92 H92        24.8528  -49.1158  -58.9868 H         1 UNK         0.0727 
     93 H93        26.9997  -46.9411  -59.3077 H         1 UNK         0.0790 
     94 H94        25.6661  -47.2288  -60.4177 H         1 UNK         0.0790 
     95 H95        26.9135  -48.4470  -60.2197 H         1 UNK         0.0790 
     96 H96        27.3917  -48.6915  -57.6529 H         1 UNK         0.3215 
     97 H97        26.7060  -50.3212  -54.6930 H         1 UNK         0.0863 
     98 H98        28.4432  -52.0493  -55.2735 H         1 UNK         0.0808 
     99 H99        28.0801  -51.8198  -56.9852 H         1 UNK         0.0808 
    100 H100       26.8551  -52.4583  -55.9025 H         1 UNK         0.0808 
    101 H101       29.2058  -49.7431  -55.9460 H         1 UNK         0.3118 
    102 H102       29.2416  -46.2853  -55.6276 H         1 UNK         0.0546 
    103 H103       29.2311  -46.6568  -53.1337 H         1 UNK         0.0828 
    104 H104       30.8133  -46.2757  -53.7827 H         1 UNK         0.0828 
    105 H105       30.4218  -47.9380  -53.3363 H         1 UNK         0.0828 
    106 H106       31.4036  -48.1785  -55.5422 H         1 UNK         0.3005 
    107 H107       31.3626  -48.9930  -58.9750 H         1 UNK         0.1257 
    108 H108       32.3600  -46.6206  -58.9778 H         1 UNK         0.0775 
    109 H109       33.4302  -47.9351  -59.3453 H         1 UNK         0.0775 
    110 H110       35.0108  -44.8267  -56.9913 H         1 UNK         0.0840 
    111 H111       34.0952  -44.9205  -58.4699 H         1 UNK         0.0840 
    112 H112       33.3368  -49.4865  -57.0214 H         1 UNK         0.2987 
    113 H113       31.8263  -52.0079  -55.1706 H         1 UNK         0.0785 
    114 H114       32.0749  -53.3955  -57.2391 H         1 UNK         0.0798 
    115 H115       33.3904  -53.6837  -56.1149 H         1 UNK         0.0798 
    116 H116       33.6515  -52.6794  -57.5426 H         1 UNK         0.0798 
    117 H117       34.5735  -51.5805  -55.4815 H         1 UNK         0.3079 
    118 H118       35.6699  -50.6565  -53.7725 H         1 UNK         0.0794 
    119 H119       35.1726  -47.7262  -54.5429 H         1 UNK         0.0786 
    120 H120       35.8882  -48.9399  -55.5967 H         1 UNK         0.0786 
    121 H121       36.7327  -48.4419  -54.1414 H         1 UNK         0.0786 
    122 H122       34.9544  -48.3431  -52.2027 H         1 UNK         0.3032 
    123 H123       33.4988  -49.9268  -49.5002 H         1 UNK         0.1094 
    124 H124       36.4849  -49.2131  -49.5214 H         1 UNK         0.0794 
    125 H125       35.4453  -49.2613  -48.0963 H         1 UNK         0.0794 
    126 H126       35.7990  -50.7373  -48.9772 H         1 UNK         0.0794 
    127 H127       34.8583  -47.3875  -49.8578 H         1 UNK         0.3016 
@<TRIPOS>BOND
     1    1    2 1    
     2    1   67 1    
     3    1   68 1    
     4    1   69 1    
     5    2    3 2    
     6    2    4 am   BACKBONE|DICT|INTERRES
     7    4    5 1    
     8    4   70 1    
     9    5    6 1    
    10    5   65 1    
    11    5   71 1    
    12    6    7 1    
    13    6   72 1    
    14    6   73 1    
    15    7    8 1    
    16    8    9 1    
    17    8   74 1    
    18    8   75 1    
    19    9   10 ar   
    20    9   14 ar   
    21   10   11 ar   
    22   10   76 1    
    23   11   12 ar   
    24   11   48 1    
    25   12   13 ar   
    26   12   77 1    
    27   13   14 ar   
    28   13   15 1    
    29   14   78 1    
    30   15   16 1    
    31   15   79 1    
    32   15   80 1    
    33   16   17 1    
    34   17   18 1    
    35   17   81 1    
    36   17   82 1    
    37   18   19 1    
    38   18   22 1    
    39   18   83 1    
    40   19   20 am   BACKBONE|DICT|INTERRES
    41   19   21 2    
    42   20   84 1    
    43   20   85 1    
    44   22   23 am   BACKBONE|DICT|INTERRES
    45   22   86 1    
    46   23   24 2    
    47   23   25 1    
    48   25   26 1    
    49   25   27 1    
    50   25   87 1    
    51   26   88 1    
    52   26   89 1    
    53   26   90 1    
    54   27   28 am   BACKBONE|DICT|INTERRES
    55   27   91 1    
    56   28   29 2    
    57   28   30 1    
    58   30   31 1    
    59   30   32 1    
    60   30   92 1    
    61   31   93 1    
    62   31   94 1    
    63   31   95 1    
    64   32   33 am   BACKBONE|DICT|INTERRES
    65   32   96 1    
    66   33   34 2    
    67   33   35 1    
    68   35   36 1    
    69   35   37 1    
    70   35   97 1    
    71   36   98 1    
    72   36   99 1    
    73   36  100 1    
    74   37   38 am   BACKBONE|DICT|INTERRES
    75   37  101 1    
    76   38   39 2    
    77   38   40 1    
    78   40   41 1    
    79   40   42 1    
    80   40  102 1    
    81   41  103 1    
    82   41  104 1    
    83   41  105 1    
    84   42   43 am   BACKBONE|DICT|INTERRES
    85   42  106 1    
    86   43   44 2    
    87   43   45 1    
    88   45   46 1    
    89   45   49 1    
    90   45  107 1    
    91   46   47 1    
    92   46  108 1    
    93   46  109 1    
    94   47   48 1    
    95   48  110 1    
    96   48  111 1    
    97   49   50 am   BACKBONE|DICT|INTERRES
    98   49  112 1    
    99   50   51 2    
   100   50   52 1    
   101   52   53 1    
   102   52   54 1    
   103   52  113 1    
   104   53  114 1    
   105   53  115 1    
   106   53  116 1    
   107   54   55 am   BACKBONE|DICT|INTERRES
   108   54  117 1    
   109   55   56 2    
   110   55   57 1    
   111   57   58 1    
   112   57   59 1    
   113   57  118 1    
   114   58  119 1    
   115   58  120 1    
   116   58  121 1    
   117   59   60 am   BACKBONE|DICT|INTERRES
   118   59  122 1    
   119   60   61 2    
   120   60   62 1    
   121   62   63 1    
   122   62   64 1    
   123   62  123 1    
   124   63  124 1    
   125   63  125 1    
   126   63  126 1    
   127   64   65 am   BACKBONE|DICT|INTERRES
   128   64  127 1    
   129   65   66 2    
@<TRIPOS>SUBSTRUCTURE
     1 UNK         1 GROUP             0       ****    0 ROOT    
