@<TRIPOS>MOLECULE
3R134
127   129    1
SMALL
USER_CHARGES


@<TRIPOS>ATOM
      1 CA         37.8439  -46.7254  -52.4806 C.3       0 UNK        -0.1968 
      2 C          37.1251  -46.3566  -53.7700 C.2       0 UNK         0.4852 
      3 O          37.7188  -46.4432  -54.8460 O.2       0 UNK        -0.5359 
      4 N          35.8551  -45.9418  -53.6666 N.am      1 UNK        -0.4300 
      5 CA         34.9903  -45.5569  -54.7920 C.3       1 UNK         0.0863 
      6 C6         33.6798  -44.8832  -54.3109 C.3       11 UNK        -0.0953 
      7 S7         33.9717  -43.4911  -53.1656 S.3       11 UNK        -0.2369 
      8 C8         32.8583  -42.2112  -53.8245 C.3       11 UNK         0.0226 
      9 C9         31.3979  -42.6434  -53.7974 C.ar      11 UNK        -0.0699 
     10 C10        30.7536  -42.8948  -52.5818 C.ar      11 UNK        -0.0804 
     11 C11        29.4101  -43.2827  -52.5546 C.ar      11 UNK        -0.0871 
     12 C12        28.7077  -43.4121  -53.7577 C.ar      11 UNK        -0.1008 
     13 C13        29.3416  -43.1580  -54.9778 C.ar      11 UNK        -0.0735 
     14 C14        30.6855  -42.7767  -54.9918 C.ar      11 UNK        -0.0945 
     15 C15        28.5842  -43.3029  -56.2862 C.3       11 UNK         0.0169 
     16 S16        27.6922  -41.7776  -56.7079 S.3       11 UNK        -0.2669 
     17 C17        27.4656  -41.9734  -58.5094 C.3       11 UNK        -0.0850 
     18 CA         26.2306  -42.8379  -58.8668 C.3       10 UNK         0.0855 
     19 C          25.8239  -42.6444  -60.3521 C.2       10 UNK         0.5543 
     20 N          24.9592  -41.6803  -60.6353 N.am      10 UNK        -0.7343 
     21 O          26.3125  -43.3277  -61.2503 O.2       10 UNK        -0.5027 
     22 N          26.4697  -44.2540  -58.5617 N.am      10 UNK        -0.4495 
     23 C          25.5157  -45.1568  -58.3266 C.2       10 UNK         0.4903 
     24 O          24.3188  -44.8760  -58.2523 O.2       10 UNK        -0.4860 
     25 CA         25.9417  -46.6228  -58.1288 C.3       9 UNK         0.0227 
     26 CB         25.7440  -47.4280  -59.4273 C.3       9 UNK        -0.1964 
     27 N          27.2839  -46.8526  -57.5724 N.am      9 UNK        -0.4231 
     28 C          28.4922  -46.6343  -58.1140 C.2       9 UNK         0.5014 
     29 O          28.6784  -45.9802  -59.1401 O.2       9 UNK        -0.5270 
     30 CA         29.6980  -47.2815  -57.4008 C.3       8 UNK         0.0284 
     31 CB         30.3100  -46.3356  -56.3554 C.3       8 UNK        -0.1977 
     32 N          29.3557  -48.5580  -56.7651 N.am      8 UNK        -0.4342 
     33 C          29.0101  -49.6728  -57.4283 C.2       8 UNK         0.5039 
     34 O          29.0415  -49.7822  -58.6543 O.2       8 UNK        -0.5547 
     35 CA         28.5171  -50.8572  -56.5822 C.3       7 UNK         0.0281 
     36 CB         29.6954  -51.7131  -56.0878 C.3       7 UNK        -0.1963 
     37 N          27.7120  -50.4033  -55.4452 N.am      7 UNK        -0.4444 
     38 C          26.4242  -50.0379  -55.5330 C.2       7 UNK         0.5104 
     39 O          25.7572  -50.1220  -56.5639 O.2       7 UNK        -0.5100 
     40 CA         25.7656  -49.4687  -54.2619 C.3       6 UNK         0.0396 
     41 CB         25.0842  -50.5915  -53.4642 C.3       6 UNK        -0.1801 
     42 N          26.7010  -48.7540  -53.3889 N.am      6 UNK        -0.4747 
     43 C          27.3031  -47.5948  -53.6969 C.2       6 UNK         0.5012 
     44 O          27.0967  -46.9785  -54.7409 O.2       6 UNK        -0.5003 
     45 CA         28.3589  -47.0685  -52.7008 C.3       5 UNK         0.0782 
     46 C46        27.6946  -46.1322  -51.6649 C.3       11 UNK        -0.0868 
     47 S47        28.9225  -45.2474  -50.6473 S.3       11 UNK        -0.2515 
     48 C48        28.7183  -43.5296  -51.2209 C.3       11 UNK         0.0199 
     49 N          29.1161  -48.1581  -52.0637 N.am      5 UNK        -0.4607 
     50 C          29.8454  -49.0625  -52.7284 C.2       4 UNK         0.5031 
     51 O          29.9888  -49.0513  -53.9551 O.2       4 UNK        -0.5119 
     52 CA         30.4376  -50.2152  -51.9096 C.3       4 UNK         0.0263 
     53 CB         29.3264  -51.1990  -51.4886 C.3       4 UNK        -0.1967 
     54 N          31.4226  -50.8894  -52.7482 N.am      4 UNK        -0.4237 
     55 C          32.3188  -51.8103  -52.3747 C.2       3 UNK         0.4908 
     56 O          32.4184  -52.2480  -51.2278 O.2       3 UNK        -0.5102 
     57 CA         33.2763  -52.3326  -53.4670 C.3       3 UNK         0.0241 
     58 CB         32.7431  -53.6474  -54.0599 C.3       3 UNK        -0.1971 
     59 N          33.5122  -51.3734  -54.5543 N.am      3 UNK        -0.4139 
     60 C          34.1304  -50.1945  -54.3988 C.2       2 UNK         0.5016 
     61 O          34.6445  -49.8347  -53.3341 O.2       2 UNK        -0.5319 
     62 CA         34.1435  -49.2371  -55.6043 C.3       2 UNK         0.0286 
     63 CB         32.8018  -49.2389  -56.3716 C.3       2 UNK        -0.1963 
     64 N          34.4417  -47.9169  -55.0592 N.am      2 UNK        -0.4790 
     65 C          34.6559  -46.7617  -55.6973 C.2       1 UNK         0.5024 
     66 O          34.6097  -46.6218  -56.9197 O.2       1 UNK        -0.4888 
     67 H67        38.7371  -46.1130  -52.3600 H         1 UNK         0.0892 
     68 H68        37.2121  -46.5791  -51.6046 H         1 UNK         0.0892 
     69 H69        38.1480  -47.7715  -52.5076 H         1 UNK         0.0892 
     70 H70        35.4336  -45.8597  -52.7522 H         1 UNK         0.3107 
     71 H71        35.5417  -44.8352  -55.3985 H         1 UNK         0.0773 
     72 H72        33.0354  -45.6005  -53.7983 H         1 UNK         0.0680 
     73 H73        33.1110  -44.5280  -55.1722 H         1 UNK         0.0680 
     74 H74        33.1738  -41.9547  -54.8371 H         1 UNK         0.0650 
     75 H75        32.9720  -41.3049  -53.2284 H         1 UNK         0.0650 
     76 H76        31.3026  -42.7902  -51.6557 H         1 UNK         0.1397 
     77 H77        27.6660  -43.7021  -53.7491 H         1 UNK         0.1363 
     78 H78        31.1750  -42.5791  -55.9356 H         1 UNK         0.1355 
     79 H79        29.2748  -43.5555  -57.0913 H         1 UNK         0.0707 
     80 H80        27.8759  -44.1289  -56.2100 H         1 UNK         0.0707 
     81 H81        27.3536  -40.9663  -58.9164 H         1 UNK         0.1034 
     82 H82        28.3730  -42.3747  -58.9648 H         1 UNK         0.1034 
     83 H83        25.3949  -42.4958  -58.2521 H         1 UNK         0.0482 
     84 H84        24.6927  -41.5270  -61.5955 H         1 UNK         0.3460 
     85 H85        24.5594  -41.1078  -59.9077 H         1 UNK         0.3460 
     86 H86        27.4072  -44.6069  -58.7258 H         1 UNK         0.2989 
     87 H87        25.2588  -47.0367  -57.3851 H         1 UNK         0.0559 
     88 H88        24.7162  -47.3482  -59.7840 H         1 UNK         0.0848 
     89 H89        25.9516  -48.4868  -59.2703 H         1 UNK         0.0848 
     90 H90        26.3935  -47.0728  -60.2281 H         1 UNK         0.0848 
     91 H91        27.2767  -47.2468  -56.6355 H         1 UNK         0.3144 
     92 H92        30.4583  -47.4843  -58.1580 H         1 UNK         0.0727 
     93 H93        29.5795  -46.0359  -55.6050 H         1 UNK         0.0790 
     94 H94        30.6906  -45.4308  -56.8292 H         1 UNK         0.0790 
     95 H95        31.1495  -46.7953  -55.8350 H         1 UNK         0.0790 
     96 H96        29.3791  -48.5901  -55.7501 H         1 UNK         0.3215 
     97 H97        27.8934  -51.4862  -57.2217 H         1 UNK         0.0863 
     98 H98        29.3503  -52.5580  -55.4917 H         1 UNK         0.0808 
     99 H99        30.3937  -51.1379  -55.4831 H         1 UNK         0.0808 
    100 H100       30.2568  -52.1192  -56.9303 H         1 UNK         0.0808 
    101 H101       28.1998  -50.2519  -54.5737 H         1 UNK         0.3118 
    102 H102       24.9962  -48.7614  -54.5793 H         1 UNK         0.0546 
    103 H103       25.8045  -51.3245  -53.0986 H         1 UNK         0.0828 
    104 H104       24.3620  -51.1261  -54.0831 H         1 UNK         0.0828 
    105 H105       24.5407  -50.1961  -52.6059 H         1 UNK         0.0828 
    106 H106       26.9235  -49.1882  -52.5049 H         1 UNK         0.3005 
    107 H107       29.0703  -46.4789  -53.2835 H         1 UNK         0.1257 
    108 H108       27.0442  -46.7002  -50.9971 H         1 UNK         0.0775 
    109 H109       27.0482  -45.4039  -52.1576 H         1 UNK         0.0775 
    110 H110       27.6584  -43.2782  -51.2838 H         1 UNK         0.0840 
    111 H111       29.1357  -42.8615  -50.4659 H         1 UNK         0.0840 
    112 H112       29.0513  -48.2156  -51.0574 H         1 UNK         0.2987 
    113 H113       30.9370  -49.8055  -51.0295 H         1 UNK         0.0785 
    114 H114       28.5667  -50.7055  -50.8815 H         1 UNK         0.0798 
    115 H115       29.7230  -52.0188  -50.8898 H         1 UNK         0.0798 
    116 H116       28.8245  -51.6343  -52.3538 H         1 UNK         0.0798 
    117 H117       31.4288  -50.5482  -53.7006 H         1 UNK         0.3079 
    118 H118       34.2359  -52.5374  -52.9872 H         1 UNK         0.0794 
    119 H119       33.4465  -54.0756  -54.7743 H         1 UNK         0.0786 
    120 H120       31.7893  -53.5051  -54.5694 H         1 UNK         0.0786 
    121 H121       32.5859  -54.3919  -53.2780 H         1 UNK         0.0786 
    122 H122       33.1396  -51.6130  -55.4614 H         1 UNK         0.3032 
    123 H123       34.9554  -49.5329  -56.2716 H         1 UNK         0.1094 
    124 H124       31.9659  -49.0292  -55.7061 H         1 UNK         0.0794 
    125 H125       32.7841  -48.4948  -57.1671 H         1 UNK         0.0794 
    126 H126       32.6116  -50.2000  -56.8495 H         1 UNK         0.0794 
    127 H127       34.5669  -47.9432  -54.0528 H         1 UNK         0.3016 
@<TRIPOS>BOND
     1    1    2 1    
     2    1   67 1    
     3    1   68 1    
     4    1   69 1    
     5    2    3 2    
     6    2    4 am   BACKBONE|DICT|INTERRES
     7    4    5 1    
     8    4   70 1    
     9    5    6 1    
    10    5   65 1    
    11    5   71 1    
    12    6    7 1    
    13    6   72 1    
    14    6   73 1    
    15    7    8 1    
    16    8    9 1    
    17    8   74 1    
    18    8   75 1    
    19    9   10 ar   
    20    9   14 ar   
    21   10   11 ar   
    22   10   76 1    
    23   11   12 ar   
    24   11   48 1    
    25   12   13 ar   
    26   12   77 1    
    27   13   14 ar   
    28   13   15 1    
    29   14   78 1    
    30   15   16 1    
    31   15   79 1    
    32   15   80 1    
    33   16   17 1    
    34   17   18 1    
    35   17   81 1    
    36   17   82 1    
    37   18   19 1    
    38   18   22 1    
    39   18   83 1    
    40   19   20 am   BACKBONE|DICT|INTERRES
    41   19   21 2    
    42   20   84 1    
    43   20   85 1    
    44   22   23 am   BACKBONE|DICT|INTERRES
    45   22   86 1    
    46   23   24 2    
    47   23   25 1    
    48   25   26 1    
    49   25   27 1    
    50   25   87 1    
    51   26   88 1    
    52   26   89 1    
    53   26   90 1    
    54   27   28 am   BACKBONE|DICT|INTERRES
    55   27   91 1    
    56   28   29 2    
    57   28   30 1    
    58   30   31 1    
    59   30   32 1    
    60   30   92 1    
    61   31   93 1    
    62   31   94 1    
    63   31   95 1    
    64   32   33 am   BACKBONE|DICT|INTERRES
    65   32   96 1    
    66   33   34 2    
    67   33   35 1    
    68   35   36 1    
    69   35   37 1    
    70   35   97 1    
    71   36   98 1    
    72   36   99 1    
    73   36  100 1    
    74   37   38 am   BACKBONE|DICT|INTERRES
    75   37  101 1    
    76   38   39 2    
    77   38   40 1    
    78   40   41 1    
    79   40   42 1    
    80   40  102 1    
    81   41  103 1    
    82   41  104 1    
    83   41  105 1    
    84   42   43 am   BACKBONE|DICT|INTERRES
    85   42  106 1    
    86   43   44 2    
    87   43   45 1    
    88   45   46 1    
    89   45   49 1    
    90   45  107 1    
    91   46   47 1    
    92   46  108 1    
    93   46  109 1    
    94   47   48 1    
    95   48  110 1    
    96   48  111 1    
    97   49   50 am   BACKBONE|DICT|INTERRES
    98   49  112 1    
    99   50   51 2    
   100   50   52 1    
   101   52   53 1    
   102   52   54 1    
   103   52  113 1    
   104   53  114 1    
   105   53  115 1    
   106   53  116 1    
   107   54   55 am   BACKBONE|DICT|INTERRES
   108   54  117 1    
   109   55   56 2    
   110   55   57 1    
   111   57   58 1    
   112   57   59 1    
   113   57  118 1    
   114   58  119 1    
   115   58  120 1    
   116   58  121 1    
   117   59   60 am   BACKBONE|DICT|INTERRES
   118   59  122 1    
   119   60   61 2    
   120   60   62 1    
   121   62   63 1    
   122   62   64 1    
   123   62  123 1    
   124   63  124 1    
   125   63  125 1    
   126   63  126 1    
   127   64   65 am   BACKBONE|DICT|INTERRES
   128   64  127 1    
   129   65   66 2    
@<TRIPOS>SUBSTRUCTURE
     1 UNK         1 GROUP             0       ****    0 ROOT    
