@<TRIPOS>MOLECULE
3R134
127   129    1
SMALL
USER_CHARGES


@<TRIPOS>ATOM
      1 CA         32.3257  -49.7084  -57.3370 C.3       0 UNK        -0.1968 
      2 C          33.2632  -48.7337  -56.6428 C.2       0 UNK         0.4852 
      3 O          34.4615  -48.7313  -56.9279 O.2       0 UNK        -0.5359 
      4 N          32.7246  -47.9312  -55.7148 N.am      1 UNK        -0.4300 
      5 CA         33.3932  -46.9073  -54.8986 C.3       1 UNK         0.0863 
      6 C6         34.1733  -45.8245  -55.6957 C.3       11 UNK        -0.0953 
      7 S7         33.1790  -44.9925  -56.9782 S.3       11 UNK        -0.2369 
      8 C8         33.0339  -43.3013  -56.3244 C.3       11 UNK         0.0226 
      9 C9         31.8039  -43.1369  -55.4453 C.ar      11 UNK        -0.0699 
     10 C10        31.8871  -43.3016  -54.0590 C.ar      11 UNK        -0.0804 
     11 C11        30.7608  -43.0996  -53.2540 C.ar      11 UNK        -0.0871 
     12 C12        29.5474  -42.7358  -53.8471 C.ar      11 UNK        -0.1008 
     13 C13        29.4485  -42.5821  -55.2333 C.ar      11 UNK        -0.0735 
     14 C14        30.5827  -42.7801  -56.0250 C.ar      11 UNK        -0.0945 
     15 C15        28.1324  -42.1602  -55.8736 C.3       11 UNK         0.0169 
     16 S16        26.7876  -43.3369  -55.5299 S.3       11 UNK        -0.2669 
     17 C17        25.4162  -42.5629  -56.4550 C.3       11 UNK        -0.0850 
     18 CA         24.6602  -43.5640  -57.3765 C.3       10 UNK         0.0855 
     19 C          23.4008  -42.9281  -58.0416 C.2       10 UNK         0.5543 
     20 N          23.0219  -43.3235  -59.2509 N.am      10 UNK        -0.7343 
     21 O          22.7356  -42.0858  -57.4432 O.2       10 UNK        -0.5027 
     22 N          25.5440  -44.2941  -58.3041 N.am      10 UNK        -0.4495 
     23 C          26.3003  -43.7759  -59.2783 C.2       10 UNK         0.4903 
     24 O          26.3739  -42.5711  -59.5251 O.2       10 UNK        -0.4860 
     25 CA         27.1127  -44.7892  -60.1133 C.3       9 UNK         0.0227 
     26 CB         27.8468  -44.1262  -61.2943 C.3       9 UNK        -0.1964 
     27 N          28.0881  -45.5286  -59.3056 N.am      9 UNK        -0.4231 
     28 C          27.8056  -46.5040  -58.4315 C.2       9 UNK         0.5014 
     29 O          26.6612  -46.9183  -58.2213 O.2       9 UNK        -0.5270 
     30 CA         29.0041  -47.0813  -57.6577 C.3       8 UNK         0.0284 
     31 CB         29.6737  -45.9953  -56.8001 C.3       8 UNK        -0.1977 
     32 N          28.5928  -48.1834  -56.7880 N.am      8 UNK        -0.4342 
     33 C          28.4665  -49.4586  -57.1823 C.2       8 UNK         0.5039 
     34 O          28.7523  -49.8467  -58.3164 O.2       8 UNK        -0.5547 
     35 CA         27.9622  -50.4900  -56.1537 C.3       7 UNK         0.0281 
     36 CB         29.0240  -51.5740  -55.8905 C.3       7 UNK        -0.1963 
     37 N          27.5917  -49.8777  -54.8769 N.am      7 UNK        -0.4444 
     38 C          26.3515  -49.5024  -54.5334 C.2       7 UNK         0.5104 
     39 O          25.3589  -49.6916  -55.2363 O.2       7 UNK        -0.5100 
     40 CA         26.1832  -48.7896  -53.1751 C.3       6 UNK         0.0396 
     41 CB         25.6550  -49.7735  -52.1188 C.3       6 UNK        -0.1801 
     42 N          27.4129  -48.1648  -52.6743 N.am      6 UNK        -0.4747 
     43 C          28.0539  -47.1461  -53.2689 C.2       6 UNK         0.5012 
     44 O          27.6392  -46.5951  -54.2847 O.2       6 UNK        -0.5003 
     45 CA         29.4274  -46.7465  -52.6906 C.3       5 UNK         0.0782 
     46 C46        29.2953  -45.5997  -51.6634 C.3       11 UNK        -0.0868 
     47 S47        30.9362  -44.9606  -51.1828 S.3       11 UNK        -0.2515 
     48 C48        30.8626  -43.2281  -51.7398 C.3       11 UNK         0.0199 
     49 N          30.1227  -47.9130  -52.1284 N.am      5 UNK        -0.4607 
     50 C          30.5940  -48.9259  -52.8611 C.2       4 UNK         0.5031 
     51 O          30.5704  -48.9457  -54.0952 O.2       4 UNK        -0.5119 
     52 CA         31.0973  -50.1517  -52.0976 C.3       4 UNK         0.0263 
     53 CB         29.9351  -51.1435  -51.8828 C.3       4 UNK        -0.1967 
     54 N          32.1671  -50.7530  -52.8840 N.am      4 UNK        -0.4237 
     55 C          32.9682  -51.7591  -52.5142 C.2       3 UNK         0.4908 
     56 O          32.8706  -52.3746  -51.4523 O.2       3 UNK        -0.5102 
     57 CA         34.1035  -52.1029  -53.4914 C.3       3 UNK         0.0241 
     58 CB         33.5558  -52.7397  -54.7807 C.3       3 UNK        -0.1971 
     59 N          34.8926  -50.9131  -53.8175 N.am      3 UNK        -0.4139 
     60 C          35.7153  -50.2895  -52.9599 C.2       2 UNK         0.5016 
     61 O          35.9977  -50.7161  -51.8398 O.2       2 UNK        -0.5319 
     62 CA         36.3083  -48.9502  -53.4250 C.3       2 UNK         0.0286 
     63 CB         37.6221  -49.1725  -54.1910 C.3       2 UNK        -0.1963 
     64 N          35.3767  -48.1963  -54.2661 N.am      2 UNK        -0.4790 
     65 C          34.2829  -47.5602  -53.8253 C.2       1 UNK         0.5024 
     66 O          33.9551  -47.5004  -52.6407 O.2       1 UNK        -0.4888 
     67 H67        32.7962  -50.6859  -57.4378 H         1 UNK         0.0892 
     68 H68        31.3976  -49.8347  -56.7823 H         1 UNK         0.0892 
     69 H69        32.0786  -49.3444  -58.3339 H         1 UNK         0.0892 
     70 H70        31.7533  -48.0839  -55.4614 H         1 UNK         0.3107 
     71 H71        32.5907  -46.3948  -54.3645 H         1 UNK         0.0773 
     72 H72        35.0410  -46.2545  -56.1978 H         1 UNK         0.0680 
     73 H73        34.5749  -45.0780  -55.0088 H         1 UNK         0.0680 
     74 H74        32.9694  -42.6139  -57.1692 H         1 UNK         0.0650 
     75 H75        33.9378  -43.0185  -55.7834 H         1 UNK         0.0650 
     76 H76        32.8302  -43.5719  -53.6039 H         1 UNK         0.1397 
     77 H77        28.6741  -42.5664  -53.2320 H         1 UNK         0.1363 
     78 H78        30.5200  -42.6488  -57.0965 H         1 UNK         0.1355 
     79 H79        27.8541  -41.1749  -55.4972 H         1 UNK         0.0707 
     80 H80        28.2443  -42.0630  -56.9549 H         1 UNK         0.0707 
     81 H81        24.7334  -42.1353  -55.7187 H         1 UNK         0.1034 
     82 H82        25.7860  -41.7194  -57.0400 H         1 UNK         0.1034 
     83 H83        24.2520  -44.3372  -56.7248 H         1 UNK         0.0482 
     84 H84        23.5501  -44.0239  -59.7459 H         1 UNK         0.3460 
     85 H85        22.2009  -42.9165  -59.6708 H         1 UNK         0.3460 
     86 H86        25.6052  -45.2984  -58.1603 H         1 UNK         0.2989 
     87 H87        26.4008  -45.5047  -60.5302 H         1 UNK         0.0559 
     88 H88        28.5889  -43.4021  -60.9555 H         1 UNK         0.0848 
     89 H89        27.1466  -43.5958  -61.9412 H         1 UNK         0.0848 
     90 H90        28.3562  -44.8658  -61.9123 H         1 UNK         0.0848 
     91 H91        29.0492  -45.2314  -59.3925 H         1 UNK         0.3144 
     92 H92        29.7357  -47.4506  -58.3796 H         1 UNK         0.0727 
     93 H93        30.1825  -45.2638  -57.4268 H         1 UNK         0.0790 
     94 H94        30.4210  -46.4115  -56.1269 H         1 UNK         0.0790 
     95 H95        28.9499  -45.4493  -56.1949 H         1 UNK         0.0790 
     96 H96        28.2490  -47.9166  -55.8737 H         1 UNK         0.3215 
     97 H97        27.0905  -50.9768  -56.5965 H         1 UNK         0.0863 
     98 H98        29.9205  -51.1644  -55.4260 H         1 UNK         0.0808 
     99 H99        29.3303  -52.0584  -56.8186 H         1 UNK         0.0808 
    100 H100       28.6364  -52.3537  -55.2349 H         1 UNK         0.0808 
    101 H101       28.3559  -49.6528  -54.2548 H         1 UNK         0.3118 
    102 H102       25.4399  -48.0011  -53.3108 H         1 UNK         0.0546 
    103 H103       26.3628  -50.5810  -51.9275 H         1 UNK         0.0828 
    104 H104       24.7204  -50.2317  -52.4457 H         1 UNK         0.0828 
    105 H105       25.4519  -49.2713  -51.1728 H         1 UNK         0.0828 
    106 H106       27.8176  -48.5629  -51.8395 H         1 UNK         0.3005 
    107 H107       30.0177  -46.3742  -53.5319 H         1 UNK         0.1257 
    108 H108       28.7779  -45.9407  -50.7649 H         1 UNK         0.0775 
    109 H109       28.6910  -44.7860  -52.0676 H         1 UNK         0.0775 
    110 H110       30.0243  -42.7294  -51.2505 H         1 UNK         0.0840 
    111 H111       31.7603  -42.7121  -51.3960 H         1 UNK         0.0840 
    112 H112       30.2019  -47.9454  -51.1220 H         1 UNK         0.2987 
    113 H113       31.5052  -49.8360  -51.1352 H         1 UNK         0.0785 
    114 H114       29.1087  -50.6739  -51.3485 H         1 UNK         0.0798 
    115 H115       30.2432  -52.0041  -51.2896 H         1 UNK         0.0798 
    116 H116       29.5434  -51.5173  -52.8294 H         1 UNK         0.0798 
    117 H117       32.3124  -50.3034  -53.7772 H         1 UNK         0.3079 
    118 H118       34.7598  -52.8286  -53.0056 H         1 UNK         0.0794 
    119 H119       32.9833  -53.6404  -54.5547 H         1 UNK         0.0786 
    120 H120       34.3640  -53.0321  -55.4515 H         1 UNK         0.0786 
    121 H121       32.8958  -52.0650  -55.3262 H         1 UNK         0.0786 
    122 H122       34.7521  -50.4958  -54.7257 H         1 UNK         0.3032 
    123 H123       36.5251  -48.3578  -52.5328 H         1 UNK         0.1094 
    124 H124       38.3411  -49.7212  -53.5808 H         1 UNK         0.0794 
    125 H125       37.4664  -49.7447  -55.1065 H         1 UNK         0.0794 
    126 H126       38.0869  -48.2245  -54.4630 H         1 UNK         0.0794 
    127 H127       35.5046  -48.2510  -55.2728 H         1 UNK         0.3016 
@<TRIPOS>BOND
     1    1    2 1    
     2    1   67 1    
     3    1   68 1    
     4    1   69 1    
     5    2    3 2    
     6    2    4 am   BACKBONE|DICT|INTERRES
     7    4    5 1    
     8    4   70 1    
     9    5    6 1    
    10    5   65 1    
    11    5   71 1    
    12    6    7 1    
    13    6   72 1    
    14    6   73 1    
    15    7    8 1    
    16    8    9 1    
    17    8   74 1    
    18    8   75 1    
    19    9   10 ar   
    20    9   14 ar   
    21   10   11 ar   
    22   10   76 1    
    23   11   12 ar   
    24   11   48 1    
    25   12   13 ar   
    26   12   77 1    
    27   13   14 ar   
    28   13   15 1    
    29   14   78 1    
    30   15   16 1    
    31   15   79 1    
    32   15   80 1    
    33   16   17 1    
    34   17   18 1    
    35   17   81 1    
    36   17   82 1    
    37   18   19 1    
    38   18   22 1    
    39   18   83 1    
    40   19   20 am   BACKBONE|DICT|INTERRES
    41   19   21 2    
    42   20   84 1    
    43   20   85 1    
    44   22   23 am   BACKBONE|DICT|INTERRES
    45   22   86 1    
    46   23   24 2    
    47   23   25 1    
    48   25   26 1    
    49   25   27 1    
    50   25   87 1    
    51   26   88 1    
    52   26   89 1    
    53   26   90 1    
    54   27   28 am   BACKBONE|DICT|INTERRES
    55   27   91 1    
    56   28   29 2    
    57   28   30 1    
    58   30   31 1    
    59   30   32 1    
    60   30   92 1    
    61   31   93 1    
    62   31   94 1    
    63   31   95 1    
    64   32   33 am   BACKBONE|DICT|INTERRES
    65   32   96 1    
    66   33   34 2    
    67   33   35 1    
    68   35   36 1    
    69   35   37 1    
    70   35   97 1    
    71   36   98 1    
    72   36   99 1    
    73   36  100 1    
    74   37   38 am   BACKBONE|DICT|INTERRES
    75   37  101 1    
    76   38   39 2    
    77   38   40 1    
    78   40   41 1    
    79   40   42 1    
    80   40  102 1    
    81   41  103 1    
    82   41  104 1    
    83   41  105 1    
    84   42   43 am   BACKBONE|DICT|INTERRES
    85   42  106 1    
    86   43   44 2    
    87   43   45 1    
    88   45   46 1    
    89   45   49 1    
    90   45  107 1    
    91   46   47 1    
    92   46  108 1    
    93   46  109 1    
    94   47   48 1    
    95   48  110 1    
    96   48  111 1    
    97   49   50 am   BACKBONE|DICT|INTERRES
    98   49  112 1    
    99   50   51 2    
   100   50   52 1    
   101   52   53 1    
   102   52   54 1    
   103   52  113 1    
   104   53  114 1    
   105   53  115 1    
   106   53  116 1    
   107   54   55 am   BACKBONE|DICT|INTERRES
   108   54  117 1    
   109   55   56 2    
   110   55   57 1    
   111   57   58 1    
   112   57   59 1    
   113   57  118 1    
   114   58  119 1    
   115   58  120 1    
   116   58  121 1    
   117   59   60 am   BACKBONE|DICT|INTERRES
   118   59  122 1    
   119   60   61 2    
   120   60   62 1    
   121   62   63 1    
   122   62   64 1    
   123   62  123 1    
   124   63  124 1    
   125   63  125 1    
   126   63  126 1    
   127   64   65 am   BACKBONE|DICT|INTERRES
   128   64  127 1    
   129   65   66 2    
@<TRIPOS>SUBSTRUCTURE
     1 UNK         1 GROUP             0       ****    0 ROOT    
