@<TRIPOS>MOLECULE
3R134
127   129    1
SMALL
USER_CHARGES


@<TRIPOS>ATOM
      1 CA         37.7173  -44.0833  -51.6630 C.3       0 UNK        -0.1968 
      2 C          37.1957  -45.2618  -52.4721 C.2       0 UNK         0.4852 
      3 O          37.9116  -46.2498  -52.6418 O.2       0 UNK        -0.5359 
      4 N          35.9572  -45.1612  -52.9739 N.am      1 UNK        -0.4300 
      5 CA         35.2848  -46.1962  -53.7702 C.3       1 UNK         0.0863 
      6 C6         34.0191  -45.6479  -54.4720 C.3       11 UNK        -0.0953 
      7 S7         34.4229  -44.4046  -55.7460 S.3       11 UNK        -0.2369 
      8 C8         33.5274  -42.9282  -55.1640 C.3       11 UNK         0.0226 
      9 C9         32.0231  -43.1562  -55.1189 C.ar      11 UNK        -0.0699 
     10 C10        31.3663  -43.2634  -53.8905 C.ar      11 UNK        -0.0804 
     11 C11        29.9934  -43.5165  -53.8391 C.ar      11 UNK        -0.0871 
     12 C12        29.2720  -43.6459  -55.0301 C.ar      11 UNK        -0.1008 
     13 C13        29.9180  -43.5420  -56.2650 C.ar      11 UNK        -0.0735 
     14 C14        31.2918  -43.2850  -56.3033 C.ar      11 UNK        -0.0945 
     15 C15        29.1559  -43.7896  -57.5564 C.3       11 UNK         0.0169 
     16 S16        28.4221  -42.2859  -58.2639 S.3       11 UNK        -0.2669 
     17 C17        26.8931  -42.0615  -57.2830 C.3       11 UNK        -0.0850 
     18 CA         25.6456  -42.8501  -57.7768 C.3       10 UNK         0.0855 
     19 C          25.2998  -42.5916  -59.2754 C.2       10 UNK         0.5543 
     20 N          25.2753  -43.5995  -60.1413 N.am      10 UNK        -0.7343 
     21 O          25.0324  -41.4533  -59.6530 O.2       10 UNK        -0.5027 
     22 N          25.7006  -44.2688  -57.3881 N.am      10 UNK        -0.4495 
     23 C          24.6304  -45.0658  -57.2673 C.2       10 UNK         0.4903 
     24 O          23.4703  -44.6656  -57.3793 O.2       10 UNK        -0.4860 
     25 CA         24.8971  -46.5551  -56.9638 C.3       9 UNK         0.0227 
     26 CB         23.7312  -47.4663  -57.4013 C.3       9 UNK        -0.1964 
     27 N          26.1662  -47.0753  -57.4919 N.am      9 UNK        -0.4231 
     28 C          26.5740  -47.0924  -58.7708 C.2       9 UNK         0.5014 
     29 O          25.9698  -46.5366  -59.6897 O.2       9 UNK        -0.5270 
     30 CA         27.8733  -47.8543  -59.0881 C.3       8 UNK         0.0284 
     31 CB         29.0893  -46.9189  -59.0687 C.3       8 UNK        -0.1977 
     32 N          28.1223  -48.9847  -58.1901 N.am      8 UNK        -0.4342 
     33 C          27.4989  -50.1679  -58.2829 C.2       8 UNK         0.5039 
     34 O          26.6378  -50.4264  -59.1250 O.2       8 UNK        -0.5547 
     35 CA         27.9115  -51.2508  -57.2729 C.3       7 UNK         0.0281 
     36 CB         29.2920  -51.8309  -57.6226 C.3       7 UNK        -0.1963 
     37 N          27.9130  -50.7525  -55.8972 N.am      7 UNK        -0.4444 
     38 C          26.8056  -50.4769  -55.1939 C.2       7 UNK         0.5104 
     39 O          25.6618  -50.6550  -55.6125 O.2       7 UNK        -0.5100 
     40 CA         27.0053  -49.8987  -53.7825 C.3       6 UNK         0.0396 
     41 CB         27.0732  -51.0267  -52.7412 C.3       6 UNK        -0.1801 
     42 N          28.1993  -49.0587  -53.6676 N.am      6 UNK        -0.4747 
     43 C          28.3512  -47.8712  -54.2730 C.2       6 UNK         0.5012 
     44 O          27.5083  -47.3675  -55.0147 O.2       6 UNK        -0.5003 
     45 CA         29.7020  -47.1572  -54.0606 C.3       5 UNK         0.0782 
     46 C46        29.7897  -46.4842  -52.6631 C.3       11 UNK        -0.0868 
     47 S47        28.4554  -45.2777  -52.3224 S.3       11 UNK        -0.2515 
     48 C48        29.3016  -43.6735  -52.4924 C.3       11 UNK         0.0199 
     49 N          30.8216  -48.0781  -54.2960 N.am      5 UNK        -0.4607 
     50 C          31.0415  -48.7287  -55.4527 C.2       4 UNK         0.5031 
     51 O          30.3788  -48.5403  -56.4726 O.2       4 UNK        -0.5119 
     52 CA         32.1258  -49.8217  -55.4824 C.3       4 UNK         0.0263 
     53 CB         33.3589  -49.3675  -56.2782 C.3       4 UNK        -0.1967 
     54 N          32.5168  -50.2963  -54.1525 N.am      4 UNK        -0.4237 
     55 C          31.7122  -51.0241  -53.3603 C.2       3 UNK         0.4908 
     56 O          30.5868  -51.3944  -53.6992 O.2       3 UNK        -0.5102 
     57 CA         32.2117  -51.3679  -51.9438 C.3       3 UNK         0.0241 
     58 CB         32.7835  -52.7941  -51.9113 C.3       3 UNK        -0.1971 
     59 N          33.2070  -50.4359  -51.4023 N.am      3 UNK        -0.4139 
     60 C          33.0190  -49.1222  -51.2131 C.2       2 UNK         0.5016 
     61 O          31.9690  -48.5402  -51.4876 O.2       2 UNK        -0.5319 
     62 CA         34.2105  -48.2961  -50.6880 C.3       2 UNK         0.0286 
     63 CB         35.4389  -49.1390  -50.2740 C.3       2 UNK        -0.1963 
     64 N          34.6078  -47.2611  -51.6519 N.am      2 UNK        -0.4790 
     65 C          34.9368  -47.4502  -52.9410 C.2       1 UNK         0.5024 
     66 O          34.9686  -48.5566  -53.4831 O.2       1 UNK        -0.4888 
     67 H67        37.9602  -44.4023  -50.6498 H         1 UNK         0.0892 
     68 H68        38.6223  -43.6853  -52.1213 H         1 UNK         0.0892 
     69 H69        36.9876  -43.2763  -51.5986 H         1 UNK         0.0892 
     70 H70        35.4298  -44.3141  -52.8212 H         1 UNK         0.3107 
     71 H71        35.9843  -46.5232  -54.5431 H         1 UNK         0.0773 
     72 H72        33.4670  -46.4435  -54.9728 H         1 UNK         0.0680 
     73 H73        33.3311  -45.2321  -53.7356 H         1 UNK         0.0680 
     74 H74        33.7444  -42.0967  -55.8359 H         1 UNK         0.0650 
     75 H75        33.9101  -42.6389  -54.1842 H         1 UNK         0.0650 
     76 H76        31.9300  -43.1694  -52.9723 H         1 UNK         0.1397 
     77 H77        28.2149  -43.8694  -54.9890 H         1 UNK         0.1363 
     78 H78        31.8014  -43.2180  -57.2550 H         1 UNK         0.1355 
     79 H79        28.3874  -44.5438  -57.3981 H         1 UNK         0.0707 
     80 H80        29.8386  -44.2051  -58.2986 H         1 UNK         0.0707 
     81 H81        27.0891  -42.2781  -56.2336 H         1 UNK         0.1034 
     82 H82        26.6633  -40.9947  -57.3052 H         1 UNK         0.1034 
     83 H83        24.8019  -42.4267  -57.2278 H         1 UNK         0.0482 
     84 H84        25.0438  -43.4145  -61.1040 H         1 UNK         0.3460 
     85 H85        25.4882  -44.5468  -59.8488 H         1 UNK         0.3460 
     86 H86        26.6157  -44.6812  -57.3064 H         1 UNK         0.2989 
     87 H87        24.9753  -46.6257  -55.8781 H         1 UNK         0.0559 
     88 H88        23.5588  -47.4106  -58.4767 H         1 UNK         0.0848 
     89 H89        22.8013  -47.1843  -56.9061 H         1 UNK         0.0848 
     90 H90        23.9276  -48.5083  -57.1467 H         1 UNK         0.0848 
     91 H91        26.7769  -47.4756  -56.7837 H         1 UNK         0.3144 
     92 H92        27.7732  -48.2403  -60.1050 H         1 UNK         0.0727 
     93 H93        29.3272  -46.5947  -58.0560 H         1 UNK         0.0790 
     94 H94        28.9143  -46.0317  -59.6790 H         1 UNK         0.0790 
     95 H95        29.9730  -47.4170  -59.4679 H         1 UNK         0.0790 
     96 H96        28.8528  -48.8607  -57.4903 H         1 UNK         0.3215 
     97 H97        27.1824  -52.0620  -57.3355 H         1 UNK         0.0863 
     98 H98        29.6017  -52.5883  -56.9021 H         1 UNK         0.0808 
     99 H99        30.0620  -51.0604  -57.6554 H         1 UNK         0.0808 
    100 H100       29.2721  -52.3061  -58.6042 H         1 UNK         0.0808 
    101 H101       28.8090  -50.5903  -55.4589 H         1 UNK         0.3118 
    102 H102       26.1364  -49.2775  -53.5547 H         1 UNK         0.0546 
    103 H103       26.1801  -51.6517  -52.7854 H         1 UNK         0.0828 
    104 H104       27.1389  -50.6295  -51.7283 H         1 UNK         0.0828 
    105 H105       27.9336  -51.6771  -52.9041 H         1 UNK         0.0828 
    106 H106       28.9645  -49.4257  -53.1186 H         1 UNK         0.3005 
    107 H107       29.7734  -46.3767  -54.8203 H         1 UNK         0.1257 
    108 H108       30.7575  -45.9944  -52.5454 H         1 UNK         0.0775 
    109 H109       29.7453  -47.2408  -51.8783 H         1 UNK         0.0775 
    110 H110       28.5701  -42.8731  -52.3735 H         1 UNK         0.0840 
    111 H111       30.0118  -43.5648  -51.6711 H         1 UNK         0.0840 
    112 H112       31.3846  -48.3079  -53.4839 H         1 UNK         0.2987 
    113 H113       31.6987  -50.6737  -56.0139 H         1 UNK         0.0785 
    114 H114       33.8482  -48.5080  -55.8259 H         1 UNK         0.0798 
    115 H115       33.0811  -49.0821  -57.2938 H         1 UNK         0.0798 
    116 H116       34.0955  -50.1671  -56.3578 H         1 UNK         0.0798 
    117 H117       33.4168  -49.9862  -53.8014 H         1 UNK         0.3079 
    118 H118       31.3426  -51.3331  -51.2835 H         1 UNK         0.0794 
    119 H119       33.6767  -52.8853  -52.5307 H         1 UNK         0.0786 
    120 H120       32.0543  -53.5158  -52.2829 H         1 UNK         0.0786 
    121 H121       33.0445  -53.0953  -50.8965 H         1 UNK         0.0786 
    122 H122       34.1135  -50.8211  -51.1802 H         1 UNK         0.3032 
    123 H123       33.8468  -47.7788  -49.7985 H         1 UNK         0.1094 
    124 H124       36.2193  -48.5041  -49.8539 H         1 UNK         0.0794 
    125 H125       35.1796  -49.8690  -49.5059 H         1 UNK         0.0794 
    126 H126       35.8778  -49.6764  -51.1156 H         1 UNK         0.0794 
    127 H127       34.5879  -46.3116  -51.3077 H         1 UNK         0.3016 
@<TRIPOS>BOND
     1    1    2 1    
     2    1   67 1    
     3    1   68 1    
     4    1   69 1    
     5    2    3 2    
     6    2    4 am   BACKBONE|DICT|INTERRES
     7    4    5 1    
     8    4   70 1    
     9    5    6 1    
    10    5   65 1    
    11    5   71 1    
    12    6    7 1    
    13    6   72 1    
    14    6   73 1    
    15    7    8 1    
    16    8    9 1    
    17    8   74 1    
    18    8   75 1    
    19    9   10 ar   
    20    9   14 ar   
    21   10   11 ar   
    22   10   76 1    
    23   11   12 ar   
    24   11   48 1    
    25   12   13 ar   
    26   12   77 1    
    27   13   14 ar   
    28   13   15 1    
    29   14   78 1    
    30   15   16 1    
    31   15   79 1    
    32   15   80 1    
    33   16   17 1    
    34   17   18 1    
    35   17   81 1    
    36   17   82 1    
    37   18   19 1    
    38   18   22 1    
    39   18   83 1    
    40   19   20 am   BACKBONE|DICT|INTERRES
    41   19   21 2    
    42   20   84 1    
    43   20   85 1    
    44   22   23 am   BACKBONE|DICT|INTERRES
    45   22   86 1    
    46   23   24 2    
    47   23   25 1    
    48   25   26 1    
    49   25   27 1    
    50   25   87 1    
    51   26   88 1    
    52   26   89 1    
    53   26   90 1    
    54   27   28 am   BACKBONE|DICT|INTERRES
    55   27   91 1    
    56   28   29 2    
    57   28   30 1    
    58   30   31 1    
    59   30   32 1    
    60   30   92 1    
    61   31   93 1    
    62   31   94 1    
    63   31   95 1    
    64   32   33 am   BACKBONE|DICT|INTERRES
    65   32   96 1    
    66   33   34 2    
    67   33   35 1    
    68   35   36 1    
    69   35   37 1    
    70   35   97 1    
    71   36   98 1    
    72   36   99 1    
    73   36  100 1    
    74   37   38 am   BACKBONE|DICT|INTERRES
    75   37  101 1    
    76   38   39 2    
    77   38   40 1    
    78   40   41 1    
    79   40   42 1    
    80   40  102 1    
    81   41  103 1    
    82   41  104 1    
    83   41  105 1    
    84   42   43 am   BACKBONE|DICT|INTERRES
    85   42  106 1    
    86   43   44 2    
    87   43   45 1    
    88   45   46 1    
    89   45   49 1    
    90   45  107 1    
    91   46   47 1    
    92   46  108 1    
    93   46  109 1    
    94   47   48 1    
    95   48  110 1    
    96   48  111 1    
    97   49   50 am   BACKBONE|DICT|INTERRES
    98   49  112 1    
    99   50   51 2    
   100   50   52 1    
   101   52   53 1    
   102   52   54 1    
   103   52  113 1    
   104   53  114 1    
   105   53  115 1    
   106   53  116 1    
   107   54   55 am   BACKBONE|DICT|INTERRES
   108   54  117 1    
   109   55   56 2    
   110   55   57 1    
   111   57   58 1    
   112   57   59 1    
   113   57  118 1    
   114   58  119 1    
   115   58  120 1    
   116   58  121 1    
   117   59   60 am   BACKBONE|DICT|INTERRES
   118   59  122 1    
   119   60   61 2    
   120   60   62 1    
   121   62   63 1    
   122   62   64 1    
   123   62  123 1    
   124   63  124 1    
   125   63  125 1    
   126   63  126 1    
   127   64   65 am   BACKBONE|DICT|INTERRES
   128   64  127 1    
   129   65   66 2    
@<TRIPOS>SUBSTRUCTURE
     1 UNK         1 GROUP             0       ****    0 ROOT    
