@<TRIPOS>MOLECULE
3R134
127   129    1
SMALL
USER_CHARGES


@<TRIPOS>ATOM
      1 CA         35.2329  -47.8323  -49.8163 C.3       0 UNK        -0.1968 
      2 C          34.3755  -47.8116  -51.0717 C.2       0 UNK         0.4852 
      3 O          34.4140  -48.7670  -51.8492 O.2       0 UNK        -0.5359 
      4 N          33.5906  -46.7404  -51.2655 N.am      1 UNK        -0.4300 
      5 CA         32.7298  -46.4780  -52.4305 C.3       1 UNK         0.0863 
      6 C6         31.9120  -45.1737  -52.2618 C.3       11 UNK        -0.0953 
      7 S7         32.9627  -43.7003  -52.0436 S.3       11 UNK        -0.2369 
      8 C8         31.9129  -42.3875  -52.7630 C.3       11 UNK         0.0226 
      9 C9         31.6303  -42.5707  -54.2523 C.ar      11 UNK        -0.0699 
     10 C10        32.6545  -42.9347  -55.1330 C.ar      11 UNK        -0.0804 
     11 C11        32.3887  -43.1396  -56.4884 C.ar      11 UNK        -0.0871 
     12 C12        31.0954  -42.9334  -56.9751 C.ar      11 UNK        -0.1008 
     13 C13        30.0671  -42.5413  -56.1143 C.ar      11 UNK        -0.0735 
     14 C14        30.3375  -42.3694  -54.7522 C.ar      11 UNK        -0.0945 
     15 C15        28.6741  -42.2921  -56.6731 C.3       11 UNK         0.0169 
     16 S16        27.6875  -43.8217  -56.7139 S.3       11 UNK        -0.2669 
     17 C17        26.5731  -43.5076  -58.1320 C.3       11 UNK        -0.0850 
     18 CA         26.2179  -44.7797  -58.9478 C.3       10 UNK         0.0855 
     19 C          27.4506  -45.3805  -59.6814 C.2       10 UNK         0.5543 
     20 N          27.9465  -46.5443  -59.2841 N.am      10 UNK        -0.7343 
     21 O          27.9516  -44.7827  -60.6307 O.2       10 UNK        -0.5027 
     22 N          25.4728  -45.7448  -58.1287 N.am      10 UNK        -0.4495 
     23 C          24.5326  -46.5846  -58.5822 C.2       10 UNK         0.4903 
     24 O          24.1730  -46.6388  -59.7589 O.2       10 UNK        -0.4860 
     25 CA         23.8513  -47.5087  -57.5518 C.3       9 UNK         0.0227 
     26 CB         24.3485  -48.9559  -57.7018 C.3       9 UNK        -0.1964 
     27 N          24.0518  -47.0665  -56.1691 N.am      9 UNK        -0.4231 
     28 C          23.4702  -45.9990  -55.6061 C.2       9 UNK         0.5014 
     29 O          22.5751  -45.3480  -56.1462 O.2       9 UNK        -0.5270 
     30 CA         24.0089  -45.5337  -54.2393 C.3       8 UNK         0.0284 
     31 CB         23.2618  -46.2165  -53.0762 C.3       8 UNK        -0.1977 
     32 N          25.4720  -45.6437  -54.1030 N.am      8 UNK        -0.4342 
     33 C          26.2205  -46.7526  -54.0285 C.2       8 UNK         0.5039 
     34 O          25.7563  -47.8952  -54.0001 O.2       8 UNK        -0.5547 
     35 CA         27.7446  -46.5419  -53.9938 C.3       7 UNK         0.0281 
     36 CB         28.2031  -46.3866  -52.5354 C.3       7 UNK        -0.1963 
     37 N          28.5010  -47.6282  -54.6295 N.am      7 UNK        -0.4444 
     38 C          28.2948  -48.1374  -55.8533 C.2       7 UNK         0.5104 
     39 O          27.4948  -47.6801  -56.6721 O.2       7 UNK        -0.5100 
     40 CA         29.1620  -49.3577  -56.2056 C.3       6 UNK         0.0396 
     41 CB         28.5812  -50.2141  -57.3520 C.3       6 UNK        -0.1801 
     42 N          30.5464  -48.9396  -56.4443 N.am      6 UNK        -0.4747 
     43 C          31.0428  -48.2890  -57.5079 C.2       6 UNK         0.5012 
     44 O          30.4385  -48.1221  -58.5668 O.2       6 UNK        -0.5003 
     45 CA         32.4562  -47.6974  -57.3732 C.3       5 UNK         0.0782 
     46 C46        32.3497  -46.1794  -57.0964 C.3       11 UNK        -0.0868 
     47 S47        33.9714  -45.3431  -57.0457 S.3       11 UNK        -0.2515 
     48 C48        33.4918  -43.6244  -57.4177 C.3       11 UNK         0.0199 
     49 N          33.2453  -48.3797  -56.3392 N.am      5 UNK        -0.4607 
     50 C          34.3785  -49.0472  -56.5851 C.2       4 UNK         0.5031 
     51 O          34.8109  -49.2809  -57.7146 O.2       4 UNK        -0.5119 
     52 CA         35.1952  -49.5030  -55.3673 C.3       4 UNK         0.0263 
     53 CB         35.9921  -48.3230  -54.7858 C.3       4 UNK        -0.1967 
     54 N          34.3918  -50.1140  -54.3086 N.am      4 UNK        -0.4237 
     55 C          33.8191  -51.3233  -54.3920 C.2       3 UNK         0.4908 
     56 O          33.8285  -52.0200  -55.4072 O.2       3 UNK        -0.5102 
     57 CA         33.1467  -51.8617  -53.1216 C.3       3 UNK         0.0241 
     58 CB         34.2025  -52.4019  -52.1421 C.3       3 UNK        -0.1971 
     59 N          32.3590  -50.8243  -52.4582 N.am      3 UNK        -0.4139 
     60 C          31.0297  -50.6994  -52.5618 C.2       2 UNK         0.5016 
     61 O          30.3109  -51.4752  -53.1916 O.2       2 UNK        -0.5319 
     62 CA         30.3805  -49.4955  -51.8548 C.3       2 UNK         0.0286 
     63 CB         29.8920  -49.8946  -50.4538 C.3       2 UNK        -0.1963 
     64 N          31.2532  -48.3222  -51.7418 N.am      2 UNK        -0.4790 
     65 C          31.7783  -47.6426  -52.7720 C.2       1 UNK         0.5024 
     66 O          31.5589  -47.9213  -53.9507 O.2       1 UNK        -0.4888 
     67 H67        36.2860  -47.9056  -50.0858 H         1 UNK         0.0892 
     68 H68        35.0977  -46.9344  -49.2137 H         1 UNK         0.0892 
     69 H69        34.9772  -48.6959  -49.2031 H         1 UNK         0.0892 
     70 H70        33.6168  -45.9918  -50.5873 H         1 UNK         0.3107 
     71 H71        33.3916  -46.3541  -53.2901 H         1 UNK         0.0773 
     72 H72        31.2440  -45.2413  -51.4011 H         1 UNK         0.0680 
     73 H73        31.2765  -45.0184  -53.1357 H         1 UNK         0.0680 
     74 H74        30.9809  -42.3437  -52.1973 H         1 UNK         0.0650 
     75 H75        32.4084  -41.4267  -52.6192 H         1 UNK         0.0650 
     76 H76        33.6564  -43.0957  -54.7592 H         1 UNK         0.1397 
     77 H77        30.8823  -43.0889  -58.0241 H         1 UNK         0.1363 
     78 H78        29.5398  -42.0764  -54.0833 H         1 UNK         0.1355 
     79 H79        28.7659  -41.8726  -57.6757 H         1 UNK         0.0707 
     80 H80        28.1506  -41.5436  -56.0765 H         1 UNK         0.0707 
     81 H81        27.0137  -42.7630  -58.7969 H         1 UNK         0.1034 
     82 H82        25.6592  -43.0500  -57.7503 H         1 UNK         0.1034 
     83 H83        25.5466  -44.4484  -59.7427 H         1 UNK         0.0482 
     84 H84        28.7675  -46.9267  -59.7272 H         1 UNK         0.3460 
     85 H85        27.5959  -46.9831  -58.4377 H         1 UNK         0.3460 
     86 H86        25.7698  -45.8252  -57.1674 H         1 UNK         0.2989 
     87 H87        22.7797  -47.4962  -57.7610 H         1 UNK         0.0559 
     88 H88        24.1755  -49.3246  -58.7137 H         1 UNK         0.0848 
     89 H89        23.8275  -49.6276  -57.0196 H         1 UNK         0.0848 
     90 H90        25.4169  -49.0410  -57.5047 H         1 UNK         0.0848 
     91 H91        24.7578  -47.5528  -55.6205 H         1 UNK         0.3144 
     92 H92        23.7952  -44.4654  -54.1741 H         1 UNK         0.0727 
     93 H93        23.6166  -45.8561  -52.1107 H         1 UNK         0.0790 
     94 H94        23.3762  -47.3007  -53.0929 H         1 UNK         0.0790 
     95 H95        22.1927  -46.0065  -53.1280 H         1 UNK         0.0790 
     96 H96        25.9604  -44.7584  -54.1357 H         1 UNK         0.3215 
     97 H97        27.9880  -45.6270  -54.5336 H         1 UNK         0.0863 
     98 H98        29.2641  -46.1615  -52.4746 H         1 UNK         0.0808 
     99 H99        28.0132  -47.2889  -51.9528 H         1 UNK         0.0808 
    100 H100       27.6772  -45.5675  -52.0430 H         1 UNK         0.0808 
    101 H101       29.2512  -48.0261  -54.0851 H         1 UNK         0.3118 
    102 H102       29.1899  -49.9955  -55.3209 H         1 UNK         0.0546 
    103 H103       28.4151  -49.6376  -58.2621 H         1 UNK         0.0828 
    104 H104       27.6162  -50.6319  -57.0637 H         1 UNK         0.0828 
    105 H105       29.2378  -51.0486  -57.5965 H         1 UNK         0.0828 
    106 H106       31.1308  -48.9478  -55.6164 H         1 UNK         0.3005 
    107 H107       32.9267  -47.8220  -58.3513 H         1 UNK         0.1257 
    108 H108       31.7436  -45.6998  -57.8681 H         1 UNK         0.0775 
    109 H109       31.8402  -45.9947  -56.1477 H         1 UNK         0.0775 
    110 H110       34.3652  -42.9786  -57.3167 H         1 UNK         0.0840 
    111 H111       33.1794  -43.5585  -58.4611 H         1 UNK         0.0840 
    112 H112       32.9491  -48.2355  -55.3814 H         1 UNK         0.2987 
    113 H113       35.9117  -50.2510  -55.7140 H         1 UNK         0.0785 
    114 H114       36.6443  -48.6463  -53.9743 H         1 UNK         0.0798 
    115 H115       35.3359  -47.5440  -54.3961 H         1 UNK         0.0798 
    116 H116       36.6240  -47.8647  -55.5479 H         1 UNK         0.0798 
    117 H117       34.3686  -49.6199  -53.4171 H         1 UNK         0.3079 
    118 H118       32.5041  -52.6957  -53.4126 H         1 UNK         0.0794 
    119 H119       34.8099  -53.1772  -52.6112 H         1 UNK         0.0786 
    120 H120       33.7342  -52.8451  -51.2631 H         1 UNK         0.0786 
    121 H121       34.8796  -51.6179  -51.7999 H         1 UNK         0.0786 
    122 H122       32.8793  -50.1068  -51.9644 H         1 UNK         0.3032 
    123 H123       29.5084  -49.2140  -52.4459 H         1 UNK         0.1094 
    124 H124       29.3397  -49.0831  -49.9793 H         1 UNK         0.0794 
    125 H125       29.2208  -50.7534  -50.5041 H         1 UNK         0.0794 
    126 H126       30.7207  -50.1669  -49.7989 H         1 UNK         0.0794 
    127 H127       31.5003  -48.0297  -50.8069 H         1 UNK         0.3016 
@<TRIPOS>BOND
     1    1    2 1    
     2    1   67 1    
     3    1   68 1    
     4    1   69 1    
     5    2    3 2    
     6    2    4 am   BACKBONE|DICT|INTERRES
     7    4    5 1    
     8    4   70 1    
     9    5    6 1    
    10    5   65 1    
    11    5   71 1    
    12    6    7 1    
    13    6   72 1    
    14    6   73 1    
    15    7    8 1    
    16    8    9 1    
    17    8   74 1    
    18    8   75 1    
    19    9   10 ar   
    20    9   14 ar   
    21   10   11 ar   
    22   10   76 1    
    23   11   12 ar   
    24   11   48 1    
    25   12   13 ar   
    26   12   77 1    
    27   13   14 ar   
    28   13   15 1    
    29   14   78 1    
    30   15   16 1    
    31   15   79 1    
    32   15   80 1    
    33   16   17 1    
    34   17   18 1    
    35   17   81 1    
    36   17   82 1    
    37   18   19 1    
    38   18   22 1    
    39   18   83 1    
    40   19   20 am   BACKBONE|DICT|INTERRES
    41   19   21 2    
    42   20   84 1    
    43   20   85 1    
    44   22   23 am   BACKBONE|DICT|INTERRES
    45   22   86 1    
    46   23   24 2    
    47   23   25 1    
    48   25   26 1    
    49   25   27 1    
    50   25   87 1    
    51   26   88 1    
    52   26   89 1    
    53   26   90 1    
    54   27   28 am   BACKBONE|DICT|INTERRES
    55   27   91 1    
    56   28   29 2    
    57   28   30 1    
    58   30   31 1    
    59   30   32 1    
    60   30   92 1    
    61   31   93 1    
    62   31   94 1    
    63   31   95 1    
    64   32   33 am   BACKBONE|DICT|INTERRES
    65   32   96 1    
    66   33   34 2    
    67   33   35 1    
    68   35   36 1    
    69   35   37 1    
    70   35   97 1    
    71   36   98 1    
    72   36   99 1    
    73   36  100 1    
    74   37   38 am   BACKBONE|DICT|INTERRES
    75   37  101 1    
    76   38   39 2    
    77   38   40 1    
    78   40   41 1    
    79   40   42 1    
    80   40  102 1    
    81   41  103 1    
    82   41  104 1    
    83   41  105 1    
    84   42   43 am   BACKBONE|DICT|INTERRES
    85   42  106 1    
    86   43   44 2    
    87   43   45 1    
    88   45   46 1    
    89   45   49 1    
    90   45  107 1    
    91   46   47 1    
    92   46  108 1    
    93   46  109 1    
    94   47   48 1    
    95   48  110 1    
    96   48  111 1    
    97   49   50 am   BACKBONE|DICT|INTERRES
    98   49  112 1    
    99   50   51 2    
   100   50   52 1    
   101   52   53 1    
   102   52   54 1    
   103   52  113 1    
   104   53  114 1    
   105   53  115 1    
   106   53  116 1    
   107   54   55 am   BACKBONE|DICT|INTERRES
   108   54  117 1    
   109   55   56 2    
   110   55   57 1    
   111   57   58 1    
   112   57   59 1    
   113   57  118 1    
   114   58  119 1    
   115   58  120 1    
   116   58  121 1    
   117   59   60 am   BACKBONE|DICT|INTERRES
   118   59  122 1    
   119   60   61 2    
   120   60   62 1    
   121   62   63 1    
   122   62   64 1    
   123   62  123 1    
   124   63  124 1    
   125   63  125 1    
   126   63  126 1    
   127   64   65 am   BACKBONE|DICT|INTERRES
   128   64  127 1    
   129   65   66 2    
@<TRIPOS>SUBSTRUCTURE
     1 UNK         1 GROUP             0       ****    0 ROOT    
