@<TRIPOS>MOLECULE
3R134
127   129    1
SMALL
USER_CHARGES


@<TRIPOS>ATOM
      1 CA         36.4125  -44.2578  -49.7527 C.3       0 UNK        -0.1968 
      2 C          36.0671  -45.4725  -50.6007 C.2       0 UNK         0.4852 
      3 O          36.1142  -46.6000  -50.1064 O.2       0 UNK        -0.5359 
      4 N          35.7006  -45.2560  -51.8704 N.am      1 UNK        -0.4300 
      5 CA         35.3432  -46.2744  -52.8684 C.3       1 UNK         0.0863 
      6 C6         35.6102  -45.7600  -54.3108 C.3       11 UNK        -0.0953 
      7 S7         34.8165  -44.1566  -54.7012 S.3       11 UNK        -0.2369 
      8 C8         33.6596  -44.6286  -56.0276 C.3       11 UNK         0.0226 
      9 C9         32.3293  -43.9006  -55.9235 C.ar      11 UNK        -0.0699 
     10 C10        31.5663  -44.0147  -54.7595 C.ar      11 UNK        -0.0804 
     11 C11        30.3069  -43.4183  -54.6698 C.ar      11 UNK        -0.0871 
     12 C12        29.8186  -42.6821  -55.7529 C.ar      11 UNK        -0.1008 
     13 C13        30.5712  -42.5609  -56.9258 C.ar      11 UNK        -0.0735 
     14 C14        31.8283  -43.1696  -57.0045 C.ar      11 UNK        -0.0945 
     15 C15        30.0156  -41.8006  -58.1197 C.3       11 UNK         0.0169 
     16 S16        29.0321  -42.9117  -59.1741 S.3       11 UNK        -0.2669 
     17 C17        27.4131  -42.0666  -59.2346 C.3       11 UNK        -0.0850 
     18 CA         26.6090  -42.0894  -57.8964 C.3       10 UNK         0.0855 
     19 C          25.2166  -41.3913  -57.9968 C.2       10 UNK         0.5543 
     20 N          25.1003  -40.3030  -58.7471 N.am      10 UNK        -0.7343 
     21 O          24.2434  -41.7924  -57.3604 O.2       10 UNK        -0.5027 
     22 N          26.5446  -43.4197  -57.2667 N.am      10 UNK        -0.4495 
     23 C          25.9641  -44.5136  -57.7725 C.2       10 UNK         0.4903 
     24 O          25.4274  -44.5760  -58.8817 O.2       10 UNK        -0.4860 
     25 CA         25.9411  -45.7337  -56.8391 C.3       9 UNK         0.0227 
     26 CB         24.6887  -45.7052  -55.9478 C.3       9 UNK        -0.1964 
     27 N          25.9763  -46.9969  -57.5768 N.am      9 UNK        -0.4231 
     28 C          27.0638  -47.4863  -58.1833 C.2       9 UNK         0.5014 
     29 O          28.1608  -46.9255  -58.1911 O.2       9 UNK        -0.5270 
     30 CA         26.9055  -48.8463  -58.8718 C.3       8 UNK         0.0284 
     31 CB         27.4826  -48.8390  -60.3002 C.3       8 UNK        -0.1977 
     32 N          27.5818  -49.8559  -58.0617 N.am      8 UNK        -0.4342 
     33 C          27.2399  -51.1485  -57.9988 C.2       8 UNK         0.5039 
     34 O          26.3119  -51.6428  -58.6413 O.2       8 UNK        -0.5547 
     35 CA         28.0588  -52.0467  -57.0561 C.3       7 UNK         0.0281 
     36 CB         29.4288  -52.3905  -57.6647 C.3       7 UNK        -0.1963 
     37 N          28.2357  -51.4419  -55.7350 N.am      7 UNK        -0.4444 
     38 C          27.2877  -51.4045  -54.7877 C.2       7 UNK         0.5104 
     39 O          26.1811  -51.9323  -54.9053 O.2       7 UNK        -0.5100 
     40 CA         27.6215  -50.6521  -53.4855 C.3       6 UNK         0.0396 
     41 CB         28.2321  -51.6075  -52.4485 C.3       6 UNK        -0.1801 
     42 N          28.5213  -49.5150  -53.6877 N.am      6 UNK        -0.4747 
     43 C          28.2048  -48.4060  -54.3722 C.2       6 UNK         0.5012 
     44 O          27.0888  -48.1996  -54.8451 O.2       6 UNK        -0.5003 
     45 CA         29.3367  -47.3766  -54.5868 C.3       5 UNK         0.0782 
     46 C46        29.4413  -46.4182  -53.3714 C.3       11 UNK        -0.0868 
     47 S47        28.3227  -44.9821  -53.5216 S.3       11 UNK        -0.2515 
     48 C48        29.4743  -43.5742  -53.4062 C.3       11 UNK         0.0199 
     49 N          30.6224  -48.0196  -54.9009 N.am      5 UNK        -0.4607 
     50 C          30.8360  -48.8288  -55.9505 C.2       4 UNK         0.5031 
     51 O          29.9881  -49.0774  -56.8041 O.2       4 UNK        -0.5119 
     52 CA         32.1889  -49.5529  -56.0282 C.3       4 UNK         0.0263 
     53 CB         33.2564  -48.7002  -56.7270 C.3       4 UNK        -0.1967 
     54 N          32.6598  -49.9624  -54.7062 N.am      4 UNK        -0.4237 
     55 C          32.1512  -50.9955  -54.0201 C.2       3 UNK         0.4908 
     56 O          31.2962  -51.7599  -54.4677 O.2       3 UNK        -0.5102 
     57 CA         32.6543  -51.1820  -52.5782 C.3       3 UNK         0.0241 
     58 CB         33.9531  -52.0034  -52.5583 C.3       3 UNK        -0.1971 
     59 N          32.8647  -49.9094  -51.8803 N.am      3 UNK        -0.4139 
     60 C          31.8869  -49.0432  -51.5783 C.2       2 UNK         0.5016 
     61 O          30.6978  -49.2456  -51.8195 O.2       2 UNK        -0.5319 
     62 CA         32.3038  -47.7088  -50.9389 C.3       2 UNK         0.0286 
     63 CB         32.3102  -47.8246  -49.4070 C.3       2 UNK        -0.1963 
     64 N          33.6044  -47.2051  -51.3926 N.am      2 UNK        -0.4790 
     65 C          33.9256  -46.8654  -52.6489 C.2       1 UNK         0.5024 
     66 O          33.1527  -47.0194  -53.5966 O.2       1 UNK        -0.4888 
     67 H67        37.4360  -44.3351  -49.3872 H         1 UNK         0.0892 
     68 H68        36.3227  -43.3288  -50.3155 H         1 UNK         0.0892 
     69 H69        35.7464  -44.1993  -48.8924 H         1 UNK         0.0892 
     70 H70        35.6449  -44.3059  -52.2110 H         1 UNK         0.3107 
     71 H71        36.0199  -47.1188  -52.7201 H         1 UNK         0.0773 
     72 H72        35.3428  -46.5162  -55.0499 H         1 UNK         0.0680 
     73 H73        36.6842  -45.6162  -54.4376 H         1 UNK         0.0680 
     74 H74        34.1362  -44.4511  -56.9927 H         1 UNK         0.0650 
     75 H75        33.4439  -45.6926  -55.9786 H         1 UNK         0.0650 
     76 H76        31.9594  -44.5822  -53.9282 H         1 UNK         0.1397 
     77 H77        28.8458  -42.2171  -55.6875 H         1 UNK         0.1363 
     78 H78        32.4040  -43.0928  -57.9168 H         1 UNK         0.1355 
     79 H79        30.8293  -41.3786  -58.7115 H         1 UNK         0.0707 
     80 H80        29.4184  -40.9535  -57.7802 H         1 UNK         0.0707 
     81 H81        26.8275  -42.5348  -60.0277 H         1 UNK         0.1034 
     82 H82        27.5903  -41.0415  -59.5626 H         1 UNK         0.1034 
     83 H83        27.1562  -41.4773  -57.1805 H         1 UNK         0.0482 
     84 H84        24.2052  -39.8415  -58.7962 H         1 UNK         0.3460 
     85 H85        25.8826  -39.9258  -59.2574 H         1 UNK         0.3460 
     86 H86        26.9228  -43.4741  -56.3329 H         1 UNK         0.2989 
     87 H87        26.8213  -45.6950  -56.1938 H         1 UNK         0.0559 
     88 H88        23.7716  -45.7553  -56.5362 H         1 UNK         0.0848 
     89 H89        24.6481  -44.7872  -55.3600 H         1 UNK         0.0848 
     90 H90        24.6861  -46.5377  -55.2435 H         1 UNK         0.0848 
     91 H91        25.1111  -47.5136  -57.6298 H         1 UNK         0.3144 
     92 H92        25.8408  -49.0826  -58.9320 H         1 UNK         0.0727 
     93 H93        28.5581  -48.6568  -60.2982 H         1 UNK         0.0790 
     94 H94        27.0187  -48.0577  -60.9034 H         1 UNK         0.0790 
     95 H95        27.3052  -49.7888  -60.8049 H         1 UNK         0.0790 
     96 H96        28.3797  -49.5202  -57.5186 H         1 UNK         0.3215 
     97 H97        27.5105  -52.9833  -56.9312 H         1 UNK         0.0863 
     98 H98        30.0284  -51.5011  -57.8563 H         1 UNK         0.0808 
     99 H99        29.3095  -52.9105  -58.6161 H         1 UNK         0.0808 
    100 H100       30.0021  -53.0440  -57.0067 H         1 UNK         0.0808 
    101 H101       29.1180  -50.9830  -55.5514 H         1 UNK         0.3118 
    102 H102       26.6848  -50.2656  -53.0784 H         1 UNK         0.0546 
    103 H103       28.4143  -51.1004  -51.5008 H         1 UNK         0.0828 
    104 H104       29.1795  -52.0240  -52.7913 H         1 UNK         0.0828 
    105 H105       27.5620  -52.4439  -52.2462 H         1 UNK         0.0828 
    106 H106       29.4338  -49.5636  -53.2403 H         1 UNK         0.3005 
    107 H107       29.0749  -46.7949  -55.4745 H         1 UNK         0.1257 
    108 H108       30.4622  -46.0596  -53.2622 H         1 UNK         0.0775 
    109 H109       29.2278  -46.9299  -52.4306 H         1 UNK         0.0775 
    110 H110       28.8986  -42.6638  -53.2323 H         1 UNK         0.0840 
    111 H111       30.1171  -43.6947  -52.5326 H         1 UNK         0.0840 
    112 H112       31.3938  -47.8320  -54.2706 H         1 UNK         0.2987 
    113 H113       32.0395  -50.4496  -56.6340 H         1 UNK         0.0785 
    114 H114       34.1355  -49.2963  -56.9715 H         1 UNK         0.0798 
    115 H115       32.8790  -48.2797  -57.6603 H         1 UNK         0.0798 
    116 H116       33.5832  -47.8756  -56.0992 H         1 UNK         0.0798 
    117 H117       33.3249  -49.3543  -54.2504 H         1 UNK         0.3079 
    118 H118       31.8887  -51.7389  -52.0334 H         1 UNK         0.0794 
    119 H119       34.2734  -52.2143  -51.5378 H         1 UNK         0.0786 
    120 H120       34.7684  -51.4874  -53.0671 H         1 UNK         0.0786 
    121 H121       33.8137  -52.9638  -53.0569 H         1 UNK         0.0786 
    122 H122       33.8132  -49.6644  -51.6353 H         1 UNK         0.3032 
    123 H123       31.5513  -46.9694  -51.2189 H         1 UNK         0.1094 
    124 H124       31.3462  -48.1782  -49.0377 H         1 UNK         0.0794 
    125 H125       33.0709  -48.5237  -49.0573 H         1 UNK         0.0794 
    126 H126       32.5006  -46.8593  -48.9372 H         1 UNK         0.0794 
    127 H127       34.3242  -47.0743  -50.6863 H         1 UNK         0.3016 
@<TRIPOS>BOND
     1    1    2 1    
     2    1   67 1    
     3    1   68 1    
     4    1   69 1    
     5    2    3 2    
     6    2    4 am   BACKBONE|DICT|INTERRES
     7    4    5 1    
     8    4   70 1    
     9    5    6 1    
    10    5   65 1    
    11    5   71 1    
    12    6    7 1    
    13    6   72 1    
    14    6   73 1    
    15    7    8 1    
    16    8    9 1    
    17    8   74 1    
    18    8   75 1    
    19    9   10 ar   
    20    9   14 ar   
    21   10   11 ar   
    22   10   76 1    
    23   11   12 ar   
    24   11   48 1    
    25   12   13 ar   
    26   12   77 1    
    27   13   14 ar   
    28   13   15 1    
    29   14   78 1    
    30   15   16 1    
    31   15   79 1    
    32   15   80 1    
    33   16   17 1    
    34   17   18 1    
    35   17   81 1    
    36   17   82 1    
    37   18   19 1    
    38   18   22 1    
    39   18   83 1    
    40   19   20 am   BACKBONE|DICT|INTERRES
    41   19   21 2    
    42   20   84 1    
    43   20   85 1    
    44   22   23 am   BACKBONE|DICT|INTERRES
    45   22   86 1    
    46   23   24 2    
    47   23   25 1    
    48   25   26 1    
    49   25   27 1    
    50   25   87 1    
    51   26   88 1    
    52   26   89 1    
    53   26   90 1    
    54   27   28 am   BACKBONE|DICT|INTERRES
    55   27   91 1    
    56   28   29 2    
    57   28   30 1    
    58   30   31 1    
    59   30   32 1    
    60   30   92 1    
    61   31   93 1    
    62   31   94 1    
    63   31   95 1    
    64   32   33 am   BACKBONE|DICT|INTERRES
    65   32   96 1    
    66   33   34 2    
    67   33   35 1    
    68   35   36 1    
    69   35   37 1    
    70   35   97 1    
    71   36   98 1    
    72   36   99 1    
    73   36  100 1    
    74   37   38 am   BACKBONE|DICT|INTERRES
    75   37  101 1    
    76   38   39 2    
    77   38   40 1    
    78   40   41 1    
    79   40   42 1    
    80   40  102 1    
    81   41  103 1    
    82   41  104 1    
    83   41  105 1    
    84   42   43 am   BACKBONE|DICT|INTERRES
    85   42  106 1    
    86   43   44 2    
    87   43   45 1    
    88   45   46 1    
    89   45   49 1    
    90   45  107 1    
    91   46   47 1    
    92   46  108 1    
    93   46  109 1    
    94   47   48 1    
    95   48  110 1    
    96   48  111 1    
    97   49   50 am   BACKBONE|DICT|INTERRES
    98   49  112 1    
    99   50   51 2    
   100   50   52 1    
   101   52   53 1    
   102   52   54 1    
   103   52  113 1    
   104   53  114 1    
   105   53  115 1    
   106   53  116 1    
   107   54   55 am   BACKBONE|DICT|INTERRES
   108   54  117 1    
   109   55   56 2    
   110   55   57 1    
   111   57   58 1    
   112   57   59 1    
   113   57  118 1    
   114   58  119 1    
   115   58  120 1    
   116   58  121 1    
   117   59   60 am   BACKBONE|DICT|INTERRES
   118   59  122 1    
   119   60   61 2    
   120   60   62 1    
   121   62   63 1    
   122   62   64 1    
   123   62  123 1    
   124   63  124 1    
   125   63  125 1    
   126   63  126 1    
   127   64   65 am   BACKBONE|DICT|INTERRES
   128   64  127 1    
   129   65   66 2    
@<TRIPOS>SUBSTRUCTURE
     1 UNK         1 GROUP             0       ****    0 ROOT    
