@<TRIPOS>MOLECULE
3R134
127   129    1
SMALL
USER_CHARGES


@<TRIPOS>ATOM
      1 CA         30.4313  -44.7961  -52.3988 C.3       0 UNK        -0.1968 
      2 C          31.7196  -44.9887  -51.6108 C.2       0 UNK         0.4852 
      3 O          31.6683  -45.3977  -50.4505 O.2       0 UNK        -0.5359 
      4 N          32.8730  -44.6925  -52.2286 N.am      1 UNK        -0.4300 
      5 CA         34.2084  -44.8193  -51.6270 C.3       1 UNK         0.0863 
      6 C6         35.3242  -44.1332  -52.4649 C.3       11 UNK        -0.0953 
      7 S7         35.3518  -42.3041  -52.5957 S.3       11 UNK        -0.2369 
      8 C8         33.6225  -41.7147  -52.6600 C.3       11 UNK         0.0226 
      9 C9         32.8165  -42.0697  -53.9144 C.ar      11 UNK        -0.0699 
     10 C10        33.3077  -42.8890  -54.9420 C.ar      11 UNK        -0.0804 
     11 C11        32.4947  -43.2462  -56.0190 C.ar      11 UNK        -0.0871 
     12 C12        31.2132  -42.7051  -56.1183 C.ar      11 UNK        -0.1008 
     13 C13        30.6975  -41.8956  -55.1039 C.ar      11 UNK        -0.0735 
     14 C14        31.5068  -41.5846  -54.0066 C.ar      11 UNK        -0.0945 
     15 C15        29.2671  -41.3708  -55.1791 C.3       11 UNK         0.0169 
     16 S16        28.0299  -42.7155  -55.2384 S.3       11 UNK        -0.2669 
     17 C17        27.9276  -43.0441  -57.0332 C.3       11 UNK        -0.0850 
     18 CA         26.5187  -43.4871  -57.4955 C.3       10 UNK         0.0855 
     19 C          26.4100  -43.3594  -59.0448 C.2       10 UNK         0.5543 
     20 N          26.5214  -44.4364  -59.8109 N.am      10 UNK        -0.7343 
     21 O          26.2274  -42.2570  -59.5555 O.2       10 UNK        -0.5027 
     22 N          26.1928  -44.8153  -56.9530 N.am      10 UNK        -0.4495 
     23 C          25.0228  -45.4485  -57.0879 C.2       10 UNK         0.4903 
     24 O          24.0246  -44.9633  -57.6245 O.2       10 UNK        -0.4860 
     25 CA         24.9744  -46.8770  -56.5193 C.3       9 UNK         0.0227 
     26 CB         23.5822  -47.2091  -55.9520 C.3       9 UNK        -0.1964 
     27 N          25.3661  -47.9438  -57.4508 N.am      9 UNK        -0.4231 
     28 C          26.3396  -47.9680  -58.3765 C.2       9 UNK         0.5014 
     29 O          27.0066  -46.9981  -58.7367 O.2       9 UNK        -0.5270 
     30 CA         26.6581  -49.3567  -58.9564 C.3       8 UNK         0.0284 
     31 CB         27.7315  -49.3160  -60.0605 C.3       8 UNK        -0.1977 
     32 N          27.1167  -50.2259  -57.8721 N.am      8 UNK        -0.4342 
     33 C          26.3023  -50.9379  -57.0825 C.2       8 UNK         0.5039 
     34 O          25.0863  -51.0244  -57.2614 O.2       8 UNK        -0.5547 
     35 CA         26.9345  -51.5954  -55.8496 C.3       7 UNK         0.0281 
     36 CB         27.8472  -52.7644  -56.2553 C.3       7 UNK        -0.1963 
     37 N          27.6783  -50.6295  -55.0361 N.am      7 UNK        -0.4444 
     38 C          27.1300  -49.6109  -54.3556 C.2       7 UNK         0.5104 
     39 O          25.9192  -49.3975  -54.3006 O.2       7 UNK        -0.5100 
     40 CA         28.0878  -48.6699  -53.6036 C.3       6 UNK         0.0396 
     41 CB         28.5013  -49.2720  -52.2520 C.3       6 UNK        -0.1801 
     42 N          29.2838  -48.3524  -54.3825 N.am      6 UNK        -0.4747 
     43 C          29.3133  -47.5106  -55.4268 C.2       6 UNK         0.5012 
     44 O          28.3519  -46.8335  -55.7923 O.2       6 UNK        -0.5003 
     45 CA         30.6564  -47.3903  -56.1766 C.3       5 UNK         0.0782 
     46 C46        31.4829  -46.2349  -55.5613 C.3       11 UNK        -0.0868 
     47 S47        33.1105  -45.9491  -56.3460 S.3       11 UNK        -0.2515 
     48 C48        32.9697  -44.2644  -57.0486 C.3       11 UNK         0.0199 
     49 N          31.3910  -48.6606  -56.1837 N.am      5 UNK        -0.4607 
     50 C          31.0053  -49.7677  -56.8332 C.2       4 UNK         0.5031 
     51 O          29.9802  -49.8481  -57.5103 O.2       4 UNK        -0.5119 
     52 CA         31.8942  -51.0108  -56.6574 C.3       4 UNK         0.0263 
     53 CB         33.1452  -50.9142  -57.5451 C.3       4 UNK        -0.1967 
     54 N          32.2924  -51.2314  -55.2637 N.am      4 UNK        -0.4237 
     55 C          31.4359  -51.5047  -54.2687 C.2       3 UNK         0.4908 
     56 O          30.2258  -51.6397  -54.4302 O.2       3 UNK        -0.5102 
     57 CA         32.0056  -51.6047  -52.8441 C.3       3 UNK         0.0241 
     58 CB         32.4383  -53.0478  -52.5402 C.3       3 UNK        -0.1971 
     59 N          33.1174  -50.6898  -52.5681 N.am      3 UNK        -0.4139 
     60 C          33.0811  -49.3577  -52.7077 C.2       2 UNK         0.5016 
     61 O          32.1119  -48.7315  -53.1498 O.2       2 UNK        -0.5319 
     62 CA         34.3624  -48.6122  -52.3214 C.3       2 UNK         0.0286 
     63 CB         35.4863  -48.8752  -53.3407 C.3       2 UNK        -0.1963 
     64 N          34.0836  -47.1827  -52.2850 N.am      2 UNK        -0.4790 
     65 C          34.6013  -46.2999  -51.4237 C.2       1 UNK         0.5024 
     66 O          35.3849  -46.6028  -50.5225 O.2       1 UNK        -0.4888 
     67 H67        29.7408  -44.1635  -51.8418 H         1 UNK         0.0892 
     68 H68        30.6078  -44.3248  -53.3646 H         1 UNK         0.0892 
     69 H69        29.9487  -45.7580  -52.5716 H         1 UNK         0.0892 
     70 H70        32.8517  -44.3203  -53.1685 H         1 UNK         0.3107 
     71 H71        34.1816  -44.3507  -50.6410 H         1 UNK         0.0773 
     72 H72        35.3488  -44.5557  -53.4701 H         1 UNK         0.0680 
     73 H73        36.2991  -44.3835  -52.0402 H         1 UNK         0.0680 
     74 H74        33.6556  -40.6270  -52.5838 H         1 UNK         0.0650 
     75 H75        33.0942  -42.0554  -51.7691 H         1 UNK         0.0650 
     76 H76        34.3093  -43.2869  -54.9100 H         1 UNK         0.1397 
     77 H77        30.6055  -42.9535  -56.9726 H         1 UNK         0.1363 
     78 H78        31.1132  -40.9649  -53.2121 H         1 UNK         0.1355 
     79 H79        29.1620  -40.7105  -56.0406 H         1 UNK         0.0707 
     80 H80        29.0470  -40.7562  -54.3049 H         1 UNK         0.0707 
     81 H81        28.2391  -42.1444  -57.5677 H         1 UNK         0.1034 
     82 H82        28.6471  -43.8219  -57.2929 H         1 UNK         0.1034 
     83 H83        25.7889  -42.7883  -57.0822 H         1 UNK         0.0482 
     84 H84        26.4502  -44.3467  -60.8112 H         1 UNK         0.3460 
     85 H85        26.6896  -45.3498  -59.3899 H         1 UNK         0.3460 
     86 H86        26.9639  -45.3314  -56.5434 H         1 UNK         0.2989 
     87 H87        25.6764  -46.9193  -55.6852 H         1 UNK         0.0559 
     88 H88        23.2520  -46.4421  -55.2501 H         1 UNK         0.0848 
     89 H89        23.5893  -48.1563  -55.4120 H         1 UNK         0.0848 
     90 H90        22.8308  -47.2768  -56.7397 H         1 UNK         0.0848 
     91 H91        24.9320  -48.8410  -57.2668 H         1 UNK         0.3144 
     92 H92        25.7420  -49.7552  -59.3976 H         1 UNK         0.0727 
     93 H93        28.6727  -48.9025  -59.6961 H         1 UNK         0.0790 
     94 H94        27.4057  -48.6967  -60.8970 H         1 UNK         0.0790 
     95 H95        27.9342  -50.3126  -60.4528 H         1 UNK         0.0790 
     96 H96        28.1051  -50.1575  -57.6342 H         1 UNK         0.3215 
     97 H97        26.1253  -51.9962  -55.2353 H         1 UNK         0.0863 
     98 H98        28.2099  -53.3033  -55.3798 H         1 UNK         0.0808 
     99 H99        28.7162  -52.4250  -56.8202 H         1 UNK         0.0808 
    100 H100       27.3111  -53.4823  -56.8775 H         1 UNK         0.0808 
    101 H101       28.6804  -50.7887  -54.9516 H         1 UNK         0.3118 
    102 H102       27.5541  -47.7378  -53.4053 H         1 UNK         0.0546 
    103 H103       29.0190  -50.2233  -52.3734 H         1 UNK         0.0828 
    104 H104       27.6276  -49.4552  -51.6253 H         1 UNK         0.0828 
    105 H105       29.1609  -48.5997  -51.7028 H         1 UNK         0.0828 
    106 H106       30.1469  -48.8130  -54.1154 H         1 UNK         0.3005 
    107 H107       30.4220  -47.1356  -57.2129 H         1 UNK         0.1257 
    108 H108       30.8925  -45.3203  -55.5939 H         1 UNK         0.0775 
    109 H109       31.6708  -46.4308  -54.5052 H         1 UNK         0.0775 
    110 H110       33.9417  -43.9592  -57.4384 H         1 UNK         0.0840 
    111 H111       32.2941  -44.2963  -57.9049 H         1 UNK         0.0840 
    112 H112       32.2192  -48.6937  -55.6070 H         1 UNK         0.2987 
    113 H113       31.3145  -51.8786  -56.9795 H         1 UNK         0.0785 
    114 H114       32.8698  -50.7639  -58.5901 H         1 UNK         0.0798 
    115 H115       33.7375  -51.8281  -57.4968 H         1 UNK         0.0798 
    116 H116       33.7873  -50.0815  -57.2548 H         1 UNK         0.0798 
    117 H117       33.2728  -51.1388  -55.0430 H         1 UNK         0.3079 
    118 H118       31.1991  -51.3421  -52.1569 H         1 UNK         0.0794 
    119 H119       32.7364  -53.1626  -51.4979 H         1 UNK         0.0786 
    120 H120       33.2750  -53.3603  -53.1664 H         1 UNK         0.0786 
    121 H121       31.6192  -53.7463  -52.7184 H         1 UNK         0.0786 
    122 H122       33.9617  -51.1123  -52.2090 H         1 UNK         0.3032 
    123 H123       34.6691  -48.9580  -51.3313 H         1 UNK         0.1094 
    124 H124       35.1989  -48.5633  -54.3460 H         1 UNK         0.0794 
    125 H125       36.3949  -48.3352  -53.0733 H         1 UNK         0.0794 
    126 H126       35.7459  -49.9334  -53.3863 H         1 UNK         0.0794 
    127 H127       33.3707  -46.8784  -52.9343 H         1 UNK         0.3016 
@<TRIPOS>BOND
     1    1    2 1    
     2    1   67 1    
     3    1   68 1    
     4    1   69 1    
     5    2    3 2    
     6    2    4 am   BACKBONE|DICT|INTERRES
     7    4    5 1    
     8    4   70 1    
     9    5    6 1    
    10    5   65 1    
    11    5   71 1    
    12    6    7 1    
    13    6   72 1    
    14    6   73 1    
    15    7    8 1    
    16    8    9 1    
    17    8   74 1    
    18    8   75 1    
    19    9   10 ar   
    20    9   14 ar   
    21   10   11 ar   
    22   10   76 1    
    23   11   12 ar   
    24   11   48 1    
    25   12   13 ar   
    26   12   77 1    
    27   13   14 ar   
    28   13   15 1    
    29   14   78 1    
    30   15   16 1    
    31   15   79 1    
    32   15   80 1    
    33   16   17 1    
    34   17   18 1    
    35   17   81 1    
    36   17   82 1    
    37   18   19 1    
    38   18   22 1    
    39   18   83 1    
    40   19   20 am   BACKBONE|DICT|INTERRES
    41   19   21 2    
    42   20   84 1    
    43   20   85 1    
    44   22   23 am   BACKBONE|DICT|INTERRES
    45   22   86 1    
    46   23   24 2    
    47   23   25 1    
    48   25   26 1    
    49   25   27 1    
    50   25   87 1    
    51   26   88 1    
    52   26   89 1    
    53   26   90 1    
    54   27   28 am   BACKBONE|DICT|INTERRES
    55   27   91 1    
    56   28   29 2    
    57   28   30 1    
    58   30   31 1    
    59   30   32 1    
    60   30   92 1    
    61   31   93 1    
    62   31   94 1    
    63   31   95 1    
    64   32   33 am   BACKBONE|DICT|INTERRES
    65   32   96 1    
    66   33   34 2    
    67   33   35 1    
    68   35   36 1    
    69   35   37 1    
    70   35   97 1    
    71   36   98 1    
    72   36   99 1    
    73   36  100 1    
    74   37   38 am   BACKBONE|DICT|INTERRES
    75   37  101 1    
    76   38   39 2    
    77   38   40 1    
    78   40   41 1    
    79   40   42 1    
    80   40  102 1    
    81   41  103 1    
    82   41  104 1    
    83   41  105 1    
    84   42   43 am   BACKBONE|DICT|INTERRES
    85   42  106 1    
    86   43   44 2    
    87   43   45 1    
    88   45   46 1    
    89   45   49 1    
    90   45  107 1    
    91   46   47 1    
    92   46  108 1    
    93   46  109 1    
    94   47   48 1    
    95   48  110 1    
    96   48  111 1    
    97   49   50 am   BACKBONE|DICT|INTERRES
    98   49  112 1    
    99   50   51 2    
   100   50   52 1    
   101   52   53 1    
   102   52   54 1    
   103   52  113 1    
   104   53  114 1    
   105   53  115 1    
   106   53  116 1    
   107   54   55 am   BACKBONE|DICT|INTERRES
   108   54  117 1    
   109   55   56 2    
   110   55   57 1    
   111   57   58 1    
   112   57   59 1    
   113   57  118 1    
   114   58  119 1    
   115   58  120 1    
   116   58  121 1    
   117   59   60 am   BACKBONE|DICT|INTERRES
   118   59  122 1    
   119   60   61 2    
   120   60   62 1    
   121   62   63 1    
   122   62   64 1    
   123   62  123 1    
   124   63  124 1    
   125   63  125 1    
   126   63  126 1    
   127   64   65 am   BACKBONE|DICT|INTERRES
   128   64  127 1    
   129   65   66 2    
@<TRIPOS>SUBSTRUCTURE
     1 UNK         1 GROUP             0       ****    0 ROOT    
