@<TRIPOS>MOLECULE
3R134
127   129    1
SMALL
USER_CHARGES


@<TRIPOS>ATOM
      1 CA         36.4915  -47.0227  -55.7456 C.3       0 UNK        -0.1968 
      2 C          35.3644  -47.2831  -54.7589 C.2       0 UNK         0.4852 
      3 O          34.8727  -48.4084  -54.6777 O.2       0 UNK        -0.5359 
      4 N          34.9591  -46.2554  -53.9986 N.am      1 UNK        -0.4300 
      5 CA         33.8359  -46.2801  -53.0485 C.3       1 UNK         0.0863 
      6 C6         33.5740  -44.8948  -52.4113 C.3       11 UNK        -0.0953 
      7 S7         33.3701  -43.5706  -53.6490 S.3       11 UNK        -0.2369 
      8 C8         31.8028  -42.8020  -53.1365 C.3       11 UNK         0.0226 
      9 C9         30.5924  -43.5126  -53.7236 C.ar      11 UNK        -0.0699 
     10 C10        29.7330  -44.2588  -52.9087 C.ar      11 UNK        -0.0804 
     11 C11        28.5818  -44.8452  -53.4465 C.ar      11 UNK        -0.0871 
     12 C12        28.3024  -44.6887  -54.8072 C.ar      11 UNK        -0.1008 
     13 C13        29.1580  -43.9547  -55.6307 C.ar      11 UNK        -0.0735 
     14 C14        30.3019  -43.3691  -55.0841 C.ar      11 UNK        -0.0945 
     15 C15        28.8279  -43.7808  -57.1030 C.3       11 UNK         0.0169 
     16 S16        27.9430  -42.2185  -57.3938 S.3       11 UNK        -0.2669 
     17 C17        27.1596  -42.5601  -59.0077 C.3       11 UNK        -0.0850 
     18 CA         25.6336  -42.8180  -58.8924 C.3       10 UNK         0.0855 
     19 C          25.0244  -43.1343  -60.2832 C.2       10 UNK         0.5543 
     20 N          24.4060  -42.1567  -60.9307 N.am      10 UNK        -0.7343 
     21 O          25.1543  -44.2435  -60.7969 O.2       10 UNK        -0.5027 
     22 N          25.3208  -43.8675  -57.9119 N.am      10 UNK        -0.4495 
     23 C          24.1252  -44.0393  -57.3370 C.2       10 UNK         0.4903 
     24 O          23.1423  -43.3332  -57.5703 O.2       10 UNK        -0.4860 
     25 CA         24.0357  -45.1810  -56.3068 C.3       9 UNK         0.0227 
     26 CB         22.6128  -45.3801  -55.7413 C.3       9 UNK        -0.1964 
     27 N          24.5812  -46.4449  -56.8143 N.am      9 UNK        -0.4231 
     28 C          24.1464  -47.1729  -57.8517 C.2       9 UNK         0.5014 
     29 O          23.1956  -46.8607  -58.5709 O.2       9 UNK        -0.5270 
     30 CA         24.9177  -48.4820  -58.1173 C.3       8 UNK         0.0284 
     31 CB         24.1351  -49.4496  -59.0255 C.3       8 UNK        -0.1977 
     32 N          26.2421  -48.2536  -58.7017 N.am      8 UNK        -0.4342 
     33 C          27.2914  -47.7107  -58.0740 C.2       8 UNK         0.5039 
     34 O          27.2599  -47.2929  -56.9108 O.2       8 UNK        -0.5547 
     35 CA         28.5924  -47.6132  -58.8786 C.3       7 UNK         0.0281 
     36 CB         28.4947  -46.5598  -59.9983 C.3       7 UNK        -0.1963 
     37 N          29.6587  -47.2753  -57.9443 N.am      7 UNK        -0.4444 
     38 C          30.9714  -47.4341  -58.1352 C.2       7 UNK         0.5104 
     39 O          31.4696  -47.8235  -59.1919 O.2       7 UNK        -0.5100 
     40 CA         31.8896  -47.1140  -56.9414 C.3       6 UNK         0.0396 
     41 CB         32.5150  -45.7187  -57.0958 C.3       6 UNK        -0.1801 
     42 N          31.2150  -47.2002  -55.6410 N.am      6 UNK        -0.4747 
     43 C          30.8694  -48.3526  -55.0459 C.2       6 UNK         0.5012 
     44 O          31.0090  -49.4558  -55.5758 O.2       6 UNK        -0.5003 
     45 CA         30.2900  -48.2234  -53.6231 C.3       5 UNK         0.0782 
     46 C46        28.7533  -48.0033  -53.6170 C.3       11 UNK        -0.0868 
     47 S47        28.2384  -47.2452  -52.0391 S.3       11 UNK        -0.2515 
     48 C48        27.6084  -45.6161  -52.5615 C.3       11 UNK         0.0199 
     49 N          30.7582  -49.2997  -52.7376 N.am      5 UNK        -0.4607 
     50 C          30.3497  -50.5766  -52.6869 C.2       4 UNK         0.5031 
     51 O          29.4438  -51.0533  -53.3731 O.2       4 UNK        -0.5119 
     52 CA         31.0917  -51.4704  -51.6730 C.3       4 UNK         0.0263 
     53 CB         30.5548  -52.9177  -51.6285 C.3       4 UNK        -0.1967 
     54 N          32.5450  -51.4621  -51.8771 N.am      4 UNK        -0.4237 
     55 C          33.2257  -51.8261  -52.9755 C.2       3 UNK         0.4908 
     56 O          32.7007  -52.2883  -53.9894 O.2       3 UNK        -0.5102 
     57 CA         34.7577  -51.6469  -52.9234 C.3       3 UNK         0.0241 
     58 CB         35.4206  -51.7896  -54.3069 C.3       3 UNK        -0.1971 
     59 N          35.1379  -50.3553  -52.3424 N.am      3 UNK        -0.4139 
     60 C          35.2508  -50.1097  -51.0282 C.2       2 UNK         0.5016 
     61 O          35.0484  -50.9636  -50.1646 O.2       2 UNK        -0.5319 
     62 CA         35.5987  -48.6766  -50.5864 C.3       2 UNK         0.0286 
     63 CB         37.0988  -48.5629  -50.2710 C.3       2 UNK        -0.1963 
     64 N          35.2351  -47.6474  -51.5623 N.am      2 UNK        -0.4790 
     65 C          33.9848  -47.3473  -51.9440 C.2       1 UNK         0.5024 
     66 O          32.9790  -47.8920  -51.4860 O.2       1 UNK        -0.4888 
     67 H67        36.8446  -45.9926  -55.7001 H         1 UNK         0.0892 
     68 H68        36.1500  -47.2199  -56.7614 H         1 UNK         0.0892 
     69 H69        37.3338  -47.6810  -55.5350 H         1 UNK         0.0892 
     70 H70        35.3998  -45.3531  -54.1123 H         1 UNK         0.3107 
     71 H71        32.9543  -46.5508  -53.6271 H         1 UNK         0.0773 
     72 H72        32.6843  -44.9362  -51.7799 H         1 UNK         0.0680 
     73 H73        34.3993  -44.6105  -51.7554 H         1 UNK         0.0680 
     74 H74        31.7469  -42.7574  -52.0477 H         1 UNK         0.0650 
     75 H75        31.8006  -41.7660  -53.4784 H         1 UNK         0.0650 
     76 H76        29.9441  -44.3651  -51.8533 H         1 UNK         0.1397 
     77 H77        27.4098  -45.1324  -55.2268 H         1 UNK         0.1363 
     78 H78        30.9574  -42.7827  -55.7137 H         1 UNK         0.1355 
     79 H79        28.2158  -44.6185  -57.4368 H         1 UNK         0.0707 
     80 H80        29.7361  -43.8001  -57.7064 H         1 UNK         0.0707 
     81 H81        27.6635  -43.3932  -59.4975 H         1 UNK         0.1034 
     82 H82        27.3392  -41.6950  -59.6490 H         1 UNK         0.1034 
     83 H83        25.1805  -41.8938  -58.5266 H         1 UNK         0.0482 
     84 H84        24.3028  -41.2418  -60.5193 H         1 UNK         0.3460 
     85 H85        24.0203  -42.3410  -61.8437 H         1 UNK         0.3460 
     86 H86        26.0643  -44.5098  -57.6895 H         1 UNK         0.2989 
     87 H87        24.6770  -44.8877  -55.4742 H         1 UNK         0.0559 
     88 H88        21.8968  -45.6374  -56.5225 H         1 UNK         0.0848 
     89 H89        22.2534  -44.4695  -55.2605 H         1 UNK         0.0848 
     90 H90        22.5903  -46.1711  -54.9919 H         1 UNK         0.0848 
     91 H91        25.4477  -46.7633  -56.3870 H         1 UNK         0.3144 
     92 H92        25.0546  -48.9778  -57.1535 H         1 UNK         0.0727 
     93 H93        24.6488  -50.4061  -59.1237 H         1 UNK         0.0790 
     94 H94        23.9919  -49.0403  -60.0264 H         1 UNK         0.0790 
     95 H95        23.1462  -49.6567  -58.6139 H         1 UNK         0.0790 
     96 H96        26.3528  -48.5341  -59.6658 H         1 UNK         0.3215 
     97 H97        28.8014  -48.5941  -59.3111 H         1 UNK         0.0863 
     98 H98        29.4159  -46.5075  -60.5786 H         1 UNK         0.0808 
     99 H99        28.2981  -45.5677  -59.5991 H         1 UNK         0.0808 
    100 H100       27.6907  -46.7938  -60.6970 H         1 UNK         0.0808 
    101 H101       29.3175  -47.0114  -57.0274 H         1 UNK         0.3118 
    102 H102       32.7011  -47.8453  -56.9481 H         1 UNK         0.0546 
    103 H103       33.0769  -45.6457  -58.0279 H         1 UNK         0.0828 
    104 H104       33.2079  -45.4983  -56.2843 H         1 UNK         0.0828 
    105 H105       31.7593  -44.9348  -57.1114 H         1 UNK         0.0828 
    106 H106       31.0331  -46.3228  -55.1728 H         1 UNK         0.3005 
    107 H107       30.7402  -47.3221  -53.2042 H         1 UNK         0.1257 
    108 H108       28.2017  -48.9309  -53.7639 H         1 UNK         0.0775 
    109 H109       28.4431  -47.3674  -54.4450 H         1 UNK         0.0775 
    110 H110       26.6556  -45.7597  -53.0738 H         1 UNK         0.0840 
    111 H111       27.3844  -45.0244  -51.6728 H         1 UNK         0.0840 
    112 H112       31.5324  -49.0269  -52.1392 H         1 UNK         0.2987 
    113 H113       30.9162  -51.0283  -50.6909 H         1 UNK         0.0785 
    114 H114       29.4930  -52.9314  -51.3794 H         1 UNK         0.0798 
    115 H115       31.0718  -53.5097  -50.8734 H         1 UNK         0.0798 
    116 H116       30.6690  -53.4238  -52.5876 H         1 UNK         0.0798 
    117 H117       33.0961  -51.1231  -51.0970 H         1 UNK         0.3079 
    118 H118       35.1475  -52.4487  -52.2924 H         1 UNK         0.0794 
    119 H119       35.0295  -51.0610  -55.0179 H         1 UNK         0.0786 
    120 H120       35.2431  -52.7809  -54.7258 H         1 UNK         0.0786 
    121 H121       36.5005  -51.6538  -54.2467 H         1 UNK         0.0786 
    122 H122       35.2303  -49.5850  -52.9975 H         1 UNK         0.3032 
    123 H123       35.0381  -48.4790  -49.6697 H         1 UNK         0.1094 
    124 H124       37.3475  -47.5802  -49.8697 H         1 UNK         0.0794 
    125 H125       37.3975  -49.2998  -49.5239 H         1 UNK         0.0794 
    126 H126       37.7121  -48.7307  -51.1573 H         1 UNK         0.0794 
    127 H127       35.9959  -47.1507  -52.0036 H         1 UNK         0.3016 
@<TRIPOS>BOND
     1    1    2 1    
     2    1   67 1    
     3    1   68 1    
     4    1   69 1    
     5    2    3 2    
     6    2    4 am   BACKBONE|DICT|INTERRES
     7    4    5 1    
     8    4   70 1    
     9    5    6 1    
    10    5   65 1    
    11    5   71 1    
    12    6    7 1    
    13    6   72 1    
    14    6   73 1    
    15    7    8 1    
    16    8    9 1    
    17    8   74 1    
    18    8   75 1    
    19    9   10 ar   
    20    9   14 ar   
    21   10   11 ar   
    22   10   76 1    
    23   11   12 ar   
    24   11   48 1    
    25   12   13 ar   
    26   12   77 1    
    27   13   14 ar   
    28   13   15 1    
    29   14   78 1    
    30   15   16 1    
    31   15   79 1    
    32   15   80 1    
    33   16   17 1    
    34   17   18 1    
    35   17   81 1    
    36   17   82 1    
    37   18   19 1    
    38   18   22 1    
    39   18   83 1    
    40   19   20 am   BACKBONE|DICT|INTERRES
    41   19   21 2    
    42   20   84 1    
    43   20   85 1    
    44   22   23 am   BACKBONE|DICT|INTERRES
    45   22   86 1    
    46   23   24 2    
    47   23   25 1    
    48   25   26 1    
    49   25   27 1    
    50   25   87 1    
    51   26   88 1    
    52   26   89 1    
    53   26   90 1    
    54   27   28 am   BACKBONE|DICT|INTERRES
    55   27   91 1    
    56   28   29 2    
    57   28   30 1    
    58   30   31 1    
    59   30   32 1    
    60   30   92 1    
    61   31   93 1    
    62   31   94 1    
    63   31   95 1    
    64   32   33 am   BACKBONE|DICT|INTERRES
    65   32   96 1    
    66   33   34 2    
    67   33   35 1    
    68   35   36 1    
    69   35   37 1    
    70   35   97 1    
    71   36   98 1    
    72   36   99 1    
    73   36  100 1    
    74   37   38 am   BACKBONE|DICT|INTERRES
    75   37  101 1    
    76   38   39 2    
    77   38   40 1    
    78   40   41 1    
    79   40   42 1    
    80   40  102 1    
    81   41  103 1    
    82   41  104 1    
    83   41  105 1    
    84   42   43 am   BACKBONE|DICT|INTERRES
    85   42  106 1    
    86   43   44 2    
    87   43   45 1    
    88   45   46 1    
    89   45   49 1    
    90   45  107 1    
    91   46   47 1    
    92   46  108 1    
    93   46  109 1    
    94   47   48 1    
    95   48  110 1    
    96   48  111 1    
    97   49   50 am   BACKBONE|DICT|INTERRES
    98   49  112 1    
    99   50   51 2    
   100   50   52 1    
   101   52   53 1    
   102   52   54 1    
   103   52  113 1    
   104   53  114 1    
   105   53  115 1    
   106   53  116 1    
   107   54   55 am   BACKBONE|DICT|INTERRES
   108   54  117 1    
   109   55   56 2    
   110   55   57 1    
   111   57   58 1    
   112   57   59 1    
   113   57  118 1    
   114   58  119 1    
   115   58  120 1    
   116   58  121 1    
   117   59   60 am   BACKBONE|DICT|INTERRES
   118   59  122 1    
   119   60   61 2    
   120   60   62 1    
   121   62   63 1    
   122   62   64 1    
   123   62  123 1    
   124   63  124 1    
   125   63  125 1    
   126   63  126 1    
   127   64   65 am   BACKBONE|DICT|INTERRES
   128   64  127 1    
   129   65   66 2    
@<TRIPOS>SUBSTRUCTURE
     1 UNK         1 GROUP             0       ****    0 ROOT    
