@<TRIPOS>MOLECULE
3R134
127   129    1
SMALL
USER_CHARGES


@<TRIPOS>ATOM
      1 CA         37.2850  -44.6559  -49.7798 C.3       0 UNK        -0.1968 
      2 C          36.6491  -44.5908  -51.1608 C.2       0 UNK         0.4852 
      3 O          36.3969  -43.4963  -51.6669 O.2       0 UNK        -0.5359 
      4 N          36.3907  -45.7512  -51.7722 N.am      1 UNK        -0.4300 
      5 CA         35.8153  -45.9028  -53.1059 C.3       1 UNK         0.0863 
      6 C6         34.2774  -45.6934  -53.1055 C.3       11 UNK        -0.0953 
      7 S7         33.6360  -45.2527  -54.7576 S.3       11 UNK        -0.2369 
      8 C8         33.0917  -43.5341  -54.5039 C.3       11 UNK         0.0226 
      9 C9         31.6149  -43.4573  -54.1405 C.ar      11 UNK        -0.0699 
     10 C10        31.1879  -43.6812  -52.8278 C.ar      11 UNK        -0.0804 
     11 C11        29.8324  -43.5860  -52.4953 C.ar      11 UNK        -0.0871 
     12 C12        28.8998  -43.2685  -53.4879 C.ar      11 UNK        -0.1008 
     13 C13        29.3147  -43.0312  -54.8020 C.ar      11 UNK        -0.0735 
     14 C14        30.6731  -43.1292  -55.1202 C.ar      11 UNK        -0.0945 
     15 C15        28.3057  -42.6037  -55.8599 C.3       11 UNK         0.0169 
     16 S16        28.3293  -43.6813  -57.3263 S.3       11 UNK        -0.2669 
     17 C17        27.1265  -42.8213  -58.4007 C.3       11 UNK        -0.0850 
     18 CA         25.8461  -43.6664  -58.6625 C.3       10 UNK         0.0855 
     19 C          24.7312  -42.8612  -59.3986 C.2       10 UNK         0.5543 
     20 N          23.9095  -43.4851  -60.2340 N.am      10 UNK        -0.7343 
     21 O          24.5836  -41.6597  -59.1873 O.2       10 UNK        -0.5027 
     22 N          26.1463  -44.9857  -59.2479 N.am      10 UNK        -0.4495 
     23 C          26.7113  -45.2261  -60.4371 C.2       10 UNK         0.4903 
     24 O          27.0273  -44.3473  -61.2410 O.2       10 UNK        -0.4860 
     25 CA         26.9826  -46.7076  -60.7665 C.3       9 UNK         0.0227 
     26 CB         27.5169  -46.9085  -62.1974 C.3       9 UNK        -0.1964 
     27 N          27.9207  -47.3181  -59.8188 N.am      9 UNK        -0.4231 
     28 C          27.6205  -47.7131  -58.5748 C.2       9 UNK         0.5014 
     29 O          26.5039  -47.5773  -58.0655 O.2       9 UNK        -0.5270 
     30 CA         28.7704  -48.3340  -57.7610 C.3       8 UNK         0.0284 
     31 CB         29.5032  -47.2512  -56.9503 C.3       8 UNK        -0.1977 
     32 N          28.2969  -49.3665  -56.8402 N.am      8 UNK        -0.4342 
     33 C          27.6829  -50.5065  -57.1853 C.2       8 UNK         0.5039 
     34 O          27.5278  -50.8822  -58.3486 O.2       8 UNK        -0.5547 
     35 CA         27.1519  -51.3780  -56.0372 C.3       7 UNK         0.0281 
     36 CB         28.2477  -52.3334  -55.5355 C.3       7 UNK        -0.1963 
     37 N          26.6628  -50.5620  -54.9219 N.am      7 UNK        -0.4444 
     38 C          25.4049  -50.1152  -54.7993 C.2       7 UNK         0.5104 
     39 O          24.5065  -50.3820  -55.5984 O.2       7 UNK        -0.5100 
     40 CA         25.0686  -49.2507  -53.5679 C.3       6 UNK         0.0396 
     41 CB         24.3346  -50.0948  -52.5131 C.3       6 UNK        -0.1801 
     42 N          26.2465  -48.6391  -52.9469 N.am      6 UNK        -0.4747 
     43 C          26.8097  -47.4871  -53.3414 C.2       6 UNK         0.5012 
     44 O          26.3569  -46.7767  -54.2382 O.2       6 UNK        -0.5003 
     45 CA         28.1114  -47.0658  -52.6225 C.3       5 UNK         0.0782 
     46 C46        27.7934  -46.0925  -51.4607 C.3       11 UNK        -0.0868 
     47 S47        29.2932  -45.5305  -50.5823 S.3       11 UNK        -0.2515 
     48 C48        29.3856  -43.7756  -51.0526 C.3       11 UNK         0.0199 
     49 N          28.9308  -48.2018  -52.1711 N.am      5 UNK        -0.4607 
     50 C          29.4294  -49.1553  -52.9640 C.2       4 UNK         0.5031 
     51 O          29.1375  -49.2729  -54.1548 O.2       4 UNK        -0.5119 
     52 CA         30.3737  -50.1797  -52.3143 C.3       4 UNK         0.0263 
     53 CB         29.5778  -51.3915  -51.8031 C.3       4 UNK        -0.1967 
     54 N          31.3933  -50.6332  -53.2650 N.am      4 UNK        -0.4237 
     55 C          32.3296  -49.8310  -53.7880 C.2       3 UNK         0.4908 
     56 O          32.5057  -48.6639  -53.4315 O.2       3 UNK        -0.5102 
     57 CA         33.1966  -50.4185  -54.9069 C.3       3 UNK         0.0241 
     58 CB         32.3841  -50.5999  -56.2036 C.3       3 UNK        -0.1971 
     59 N          34.3043  -49.4998  -55.1495 N.am      3 UNK        -0.4139 
     60 C          35.5381  -49.8317  -55.5401 C.2       2 UNK         0.5016 
     61 O          35.8841  -50.9840  -55.8051 O.2       2 UNK        -0.5319 
     62 CA         36.5670  -48.6912  -55.6675 C.3       2 UNK         0.0286 
     63 CB         36.8180  -48.3609  -57.1484 C.3       2 UNK        -0.1963 
     64 N          36.1874  -47.4581  -54.9661 N.am      2 UNK        -0.4790 
     65 C          36.2294  -47.2881  -53.6381 C.2       1 UNK         0.5024 
     66 O          36.5829  -48.1688  -52.8483 O.2       1 UNK        -0.4888 
     67 H67        38.2471  -44.1444  -49.7852 H         1 UNK         0.0892 
     68 H68        36.6427  -44.1670  -49.0479 H         1 UNK         0.0892 
     69 H69        37.4488  -45.6831  -49.4543 H         1 UNK         0.0892 
     70 H70        36.6524  -46.6334  -51.3473 H         1 UNK         0.3107 
     71 H71        36.2832  -45.1534  -53.7487 H         1 UNK         0.0773 
     72 H72        34.0117  -44.8982  -52.4094 H         1 UNK         0.0680 
     73 H73        33.7574  -46.5757  -52.7339 H         1 UNK         0.0680 
     74 H74        33.2771  -42.9794  -55.4249 H         1 UNK         0.0650 
     75 H75        33.6982  -43.0474  -53.7386 H         1 UNK         0.0650 
     76 H76        31.9101  -43.9210  -52.0601 H         1 UNK         0.1397 
     77 H77        27.8530  -43.1789  -53.2313 H         1 UNK         0.1363 
     78 H78        30.9970  -42.9386  -56.1343 H         1 UNK         0.1355 
     79 H79        27.2945  -42.5932  -55.4498 H         1 UNK         0.0707 
     80 H80        28.5326  -41.5799  -56.1610 H         1 UNK         0.0707 
     81 H81        26.8646  -41.8652  -57.9443 H         1 UNK         0.1034 
     82 H82        27.6194  -42.5698  -59.3409 H         1 UNK         0.1034 
     83 H83        25.4113  -43.8872  -57.6871 H         1 UNK         0.0482 
     84 H84        24.0132  -44.4722  -60.4059 H         1 UNK         0.3460 
     85 H85        23.1838  -42.9625  -60.6987 H         1 UNK         0.3460 
     86 H86        25.9732  -45.7885  -58.6492 H         1 UNK         0.2989 
     87 H87        26.0277  -47.2331  -60.6969 H         1 UNK         0.0559 
     88 H88        28.4801  -46.4181  -62.3438 H         1 UNK         0.0848 
     89 H89        26.8261  -46.4950  -62.9337 H         1 UNK         0.0848 
     90 H90        27.6391  -47.9662  -62.4314 H         1 UNK         0.0848 
     91 H91        28.8723  -47.4240  -60.1403 H         1 UNK         0.3144 
     92 H92        29.4783  -48.8030  -58.4473 H         1 UNK         0.0727 
     93 H93        30.3320  -47.6697  -56.3786 H         1 UNK         0.0790 
     94 H94        28.8320  -46.7550  -56.2470 H         1 UNK         0.0790 
     95 H95        29.9153  -46.4809  -57.6033 H         1 UNK         0.0790 
     96 H96        28.4420  -49.1858  -55.8496 H         1 UNK         0.3215 
     97 H97        26.3323  -51.9843  -56.4297 H         1 UNK         0.0863 
     98 H98        29.1157  -51.7937  -55.1568 H         1 UNK         0.0808 
     99 H99        28.5957  -52.9808  -56.3415 H         1 UNK         0.0808 
    100 H100       27.8773  -52.9789  -54.7391 H         1 UNK         0.0808 
    101 H101       27.3629  -50.2213  -54.2741 H         1 UNK         0.3118 
    102 H102       24.3899  -48.4611  -53.8976 H         1 UNK         0.0546 
    103 H103       24.9569  -50.9096  -52.1409 H         1 UNK         0.0828 
    104 H104       23.4305  -50.5408  -52.9302 H         1 UNK         0.0828 
    105 H105       24.0292  -49.4877  -51.6607 H         1 UNK         0.0828 
    106 H106       26.6817  -49.1475  -52.1903 H         1 UNK         0.3005 
    107 H107       28.7081  -46.5236  -53.3608 H         1 UNK         0.1257 
    108 H108       27.1423  -46.5740  -50.7284 H         1 UNK         0.0775 
    109 H109       27.2413  -45.2255  -51.8278 H         1 UNK         0.0775 
    110 H110       28.4215  -43.2961  -50.8755 H         1 UNK         0.0840 
    111 H111       30.0931  -43.2751  -50.3897 H         1 UNK         0.0840 
    112 H112       29.2167  -48.1703  -51.2028 H         1 UNK         0.2987 
    113 H113       30.8812  -49.7068  -51.4706 H         1 UNK         0.0785 
    114 H114       28.8336  -51.0884  -51.0654 H         1 UNK         0.0798 
    115 H115       29.0481  -51.9003  -52.6090 H         1 UNK         0.0798 
    116 H116       30.2303  -52.1189  -51.3196 H         1 UNK         0.0798 
    117 H117       31.2971  -51.5721  -53.6222 H         1 UNK         0.3079 
    118 H118       33.5829  -51.3829  -54.5701 H         1 UNK         0.0794 
    119 H119       31.5562  -51.2950  -56.0606 H         1 UNK         0.0786 
    120 H120       33.0041  -50.9986  -57.0068 H         1 UNK         0.0786 
    121 H121       31.9596  -49.6554  -56.5468 H         1 UNK         0.0786 
    122 H122       34.1147  -48.5432  -54.8758 H         1 UNK         0.3032 
    123 H123       37.5018  -49.0569  -55.2359 H         1 UNK         0.1094 
    124 H124       37.1358  -49.2479  -57.6986 H         1 UNK         0.0794 
    125 H125       35.9190  -47.9808  -57.6353 H         1 UNK         0.0794 
    126 H126       37.6043  -47.6142  -57.2617 H         1 UNK         0.0794 
    127 H127       35.8611  -46.6919  -55.5398 H         1 UNK         0.3016 
@<TRIPOS>BOND
     1    1    2 1    
     2    1   67 1    
     3    1   68 1    
     4    1   69 1    
     5    2    3 2    
     6    2    4 am   BACKBONE|DICT|INTERRES
     7    4    5 1    
     8    4   70 1    
     9    5    6 1    
    10    5   65 1    
    11    5   71 1    
    12    6    7 1    
    13    6   72 1    
    14    6   73 1    
    15    7    8 1    
    16    8    9 1    
    17    8   74 1    
    18    8   75 1    
    19    9   10 ar   
    20    9   14 ar   
    21   10   11 ar   
    22   10   76 1    
    23   11   12 ar   
    24   11   48 1    
    25   12   13 ar   
    26   12   77 1    
    27   13   14 ar   
    28   13   15 1    
    29   14   78 1    
    30   15   16 1    
    31   15   79 1    
    32   15   80 1    
    33   16   17 1    
    34   17   18 1    
    35   17   81 1    
    36   17   82 1    
    37   18   19 1    
    38   18   22 1    
    39   18   83 1    
    40   19   20 am   BACKBONE|DICT|INTERRES
    41   19   21 2    
    42   20   84 1    
    43   20   85 1    
    44   22   23 am   BACKBONE|DICT|INTERRES
    45   22   86 1    
    46   23   24 2    
    47   23   25 1    
    48   25   26 1    
    49   25   27 1    
    50   25   87 1    
    51   26   88 1    
    52   26   89 1    
    53   26   90 1    
    54   27   28 am   BACKBONE|DICT|INTERRES
    55   27   91 1    
    56   28   29 2    
    57   28   30 1    
    58   30   31 1    
    59   30   32 1    
    60   30   92 1    
    61   31   93 1    
    62   31   94 1    
    63   31   95 1    
    64   32   33 am   BACKBONE|DICT|INTERRES
    65   32   96 1    
    66   33   34 2    
    67   33   35 1    
    68   35   36 1    
    69   35   37 1    
    70   35   97 1    
    71   36   98 1    
    72   36   99 1    
    73   36  100 1    
    74   37   38 am   BACKBONE|DICT|INTERRES
    75   37  101 1    
    76   38   39 2    
    77   38   40 1    
    78   40   41 1    
    79   40   42 1    
    80   40  102 1    
    81   41  103 1    
    82   41  104 1    
    83   41  105 1    
    84   42   43 am   BACKBONE|DICT|INTERRES
    85   42  106 1    
    86   43   44 2    
    87   43   45 1    
    88   45   46 1    
    89   45   49 1    
    90   45  107 1    
    91   46   47 1    
    92   46  108 1    
    93   46  109 1    
    94   47   48 1    
    95   48  110 1    
    96   48  111 1    
    97   49   50 am   BACKBONE|DICT|INTERRES
    98   49  112 1    
    99   50   51 2    
   100   50   52 1    
   101   52   53 1    
   102   52   54 1    
   103   52  113 1    
   104   53  114 1    
   105   53  115 1    
   106   53  116 1    
   107   54   55 am   BACKBONE|DICT|INTERRES
   108   54  117 1    
   109   55   56 2    
   110   55   57 1    
   111   57   58 1    
   112   57   59 1    
   113   57  118 1    
   114   58  119 1    
   115   58  120 1    
   116   58  121 1    
   117   59   60 am   BACKBONE|DICT|INTERRES
   118   59  122 1    
   119   60   61 2    
   120   60   62 1    
   121   62   63 1    
   122   62   64 1    
   123   62  123 1    
   124   63  124 1    
   125   63  125 1    
   126   63  126 1    
   127   64   65 am   BACKBONE|DICT|INTERRES
   128   64  127 1    
   129   65   66 2    
@<TRIPOS>SUBSTRUCTURE
     1 UNK         1 GROUP             0       ****    0 ROOT    
