@<TRIPOS>MOLECULE
3R134
127   129    1
SMALL
USER_CHARGES


@<TRIPOS>ATOM
      1 CA         37.4089  -48.8242  -53.8634 C.3       0 UNK        -0.1968 
      2 C          36.1053  -48.1333  -54.2319 C.2       0 UNK         0.4852 
      3 O          35.1628  -48.7986  -54.6620 O.2       0 UNK        -0.5359 
      4 N          36.0329  -46.8065  -54.0540 N.am      1 UNK        -0.4300 
      5 CA         34.8602  -45.9803  -54.3681 C.3       1 UNK         0.0863 
      6 C6         35.1885  -44.4714  -54.2515 C.3       11 UNK        -0.0953 
      7 S7         33.9524  -43.4129  -55.0788 S.3       11 UNK        -0.2369 
      8 C8         33.2467  -42.4994  -53.6708 C.3       11 UNK         0.0226 
      9 C9         31.7505  -42.2905  -53.8410 C.ar      11 UNK        -0.0699 
     10 C10        30.8489  -43.0512  -53.0916 C.ar      11 UNK        -0.0804 
     11 C11        29.4715  -42.8624  -53.2349 C.ar      11 UNK        -0.0871 
     12 C12        28.9979  -41.8990  -54.1292 C.ar      11 UNK        -0.1008 
     13 C13        29.8889  -41.1427  -54.8972 C.ar      11 UNK        -0.0735 
     14 C14        31.2655  -41.3373  -54.7417 C.ar      11 UNK        -0.0945 
     15 C15        29.3680  -40.1156  -55.8952 C.3       11 UNK         0.0169 
     16 S16        28.2017  -40.8274  -57.1039 S.3       11 UNK        -0.2669 
     17 C17        29.2495  -42.0505  -57.9667 C.3       11 UNK        -0.0850 
     18 CA         28.4134  -43.1574  -58.6637 C.3       10 UNK         0.0855 
     19 C          29.3113  -44.0723  -59.5513 C.2       10 UNK         0.5543 
     20 N          29.2987  -45.3922  -59.4020 N.am      10 UNK        -0.7343 
     21 O          30.0343  -43.5692  -60.4078 O.2       10 UNK        -0.5027 
     22 N          27.5654  -43.8851  -57.7053 N.am      10 UNK        -0.4495 
     23 C          26.4366  -44.5260  -58.0243 C.2       10 UNK         0.4903 
     24 O          25.9113  -44.5008  -59.1396 O.2       10 UNK        -0.4860 
     25 CA         25.7884  -45.3505  -56.8996 C.3       9 UNK         0.0227 
     26 CB         24.4967  -44.6808  -56.4047 C.3       9 UNK        -0.1964 
     27 N          25.5053  -46.7291  -57.3109 N.am      9 UNK        -0.4231 
     28 C          26.4248  -47.5992  -57.7508 C.2       9 UNK         0.5014 
     29 O          27.6173  -47.3224  -57.8941 O.2       9 UNK        -0.5270 
     30 CA         25.9336  -49.0045  -58.1112 C.3       8 UNK         0.0284 
     31 CB         25.9461  -49.2144  -59.6371 C.3       8 UNK        -0.1977 
     32 N          26.7859  -49.9916  -57.4498 N.am      8 UNK        -0.4342 
     33 C          26.4370  -51.2594  -57.1942 C.2       8 UNK         0.5039 
     34 O          25.3611  -51.7540  -57.5351 O.2       8 UNK        -0.5547 
     35 CA         27.4369  -52.1217  -56.4056 C.3       7 UNK         0.0281 
     36 CB         28.6402  -52.5297  -57.2727 C.3       7 UNK        -0.1963 
     37 N          27.8918  -51.4357  -55.1956 N.am      7 UNK        -0.4444 
     38 C          27.1937  -51.3870  -54.0514 C.2       7 UNK         0.5104 
     39 O          26.1444  -52.0047  -53.8653 O.2       7 UNK        -0.5100 
     40 CA         27.7384  -50.4940  -52.9188 C.3       6 UNK         0.0396 
     41 CB         28.5907  -51.3156  -51.9395 C.3       6 UNK        -0.1801 
     42 N          28.5090  -49.3431  -53.3962 N.am      6 UNK        -0.4747 
     43 C          27.9968  -48.3376  -54.1222 C.2       6 UNK         0.5012 
     44 O          26.8027  -48.2483  -54.4097 O.2       6 UNK        -0.5003 
     45 CA         28.9890  -47.2827  -54.6566 C.3       5 UNK         0.0782 
     46 C46        29.2251  -46.1456  -53.6356 C.3       11 UNK        -0.0868 
     47 S47        27.7844  -45.0440  -53.4425 S.3       11 UNK        -0.2515 
     48 C48        28.4918  -43.7054  -52.4338 C.3       11 UNK         0.0199 
     49 N          30.2583  -47.8684  -55.1069 N.am      5 UNK        -0.4607 
     50 C          30.3877  -48.8055  -56.0578 C.2       4 UNK         0.5031 
     51 O          29.4428  -49.2990  -56.6684 O.2       4 UNK        -0.5119 
     52 CA         31.8019  -49.3461  -56.3206 C.3       4 UNK         0.0263 
     53 CB         32.6531  -48.3301  -57.0987 C.3       4 UNK        -0.1967 
     54 N          32.4766  -49.7306  -55.0801 N.am      4 UNK        -0.4237 
     55 C          32.0452  -50.6938  -54.2518 C.2       3 UNK         0.4908 
     56 O          31.0965  -51.4381  -54.4998 O.2       3 UNK        -0.5102 
     57 CA         32.7607  -50.8173  -52.8975 C.3       3 UNK         0.0241 
     58 CB         34.0240  -51.6850  -53.0152 C.3       3 UNK        -0.1971 
     59 N          33.1002  -49.5088  -52.3321 N.am      3 UNK        -0.4139 
     60 C          32.2002  -48.6296  -51.8672 C.2       2 UNK         0.5016 
     61 O          30.9890  -48.8451  -51.8276 O.2       2 UNK        -0.5319 
     62 CA         32.7394  -47.2640  -51.4048 C.3       2 UNK         0.0286 
     63 CB         33.2461  -47.3409  -49.9562 C.3       2 UNK        -0.1963 
     64 N          33.8033  -46.7477  -52.2727 N.am      2 UNK        -0.4790 
     65 C          33.6122  -46.3815  -53.5493 C.2       1 UNK         0.5024 
     66 O          32.5116  -46.4088  -54.0978 O.2       1 UNK        -0.4888 
     67 H67        37.8300  -49.3171  -54.7392 H         1 UNK         0.0892 
     68 H68        38.1492  -48.1227  -53.4794 H         1 UNK         0.0892 
     69 H69        37.2292  -49.5811  -53.1004 H         1 UNK         0.0892 
     70 H70        36.8380  -46.3121  -53.6959 H         1 UNK         0.3107 
     71 H71        34.6228  -46.1842  -55.4146 H         1 UNK         0.0773 
     72 H72        36.1424  -44.2663  -54.7400 H         1 UNK         0.0680 
     73 H73        35.3245  -44.1777  -53.2095 H         1 UNK         0.0680 
     74 H74        33.7493  -41.5353  -53.5813 H         1 UNK         0.0650 
     75 H75        33.4377  -43.0322  -52.7383 H         1 UNK         0.0650 
     76 H76        31.2196  -43.7992  -52.4039 H         1 UNK         0.1397 
     77 H77        27.9323  -41.7536  -54.2459 H         1 UNK         0.1363 
     78 H78        31.9642  -40.7552  -55.3272 H         1 UNK         0.1355 
     79 H79        28.8638  -39.3183  -55.3477 H         1 UNK         0.0707 
     80 H80        30.1903  -39.6454  -56.4370 H         1 UNK         0.0707 
     81 H81        29.9506  -42.5027  -57.2633 H         1 UNK         0.1034 
     82 H82        29.8569  -41.5081  -58.6938 H         1 UNK         0.1034 
     83 H83        27.7476  -42.6511  -59.3654 H         1 UNK         0.0482 
     84 H84        28.6829  -45.8507  -58.7381 H         1 UNK         0.3460 
     85 H85        29.8876  -45.9532  -59.9953 H         1 UNK         0.3460 
     86 H86        27.9234  -43.9540  -56.7642 H         1 UNK         0.2989 
     87 H87        26.4829  -45.4055  -56.0603 H         1 UNK         0.0559 
     88 H88        23.7411  -44.6303  -57.1898 H         1 UNK         0.0848 
     89 H89        24.6910  -43.6597  -56.0734 H         1 UNK         0.0848 
     90 H90        24.0695  -45.2177  -55.5575 H         1 UNK         0.0848 
     91 H91        24.5427  -47.0277  -57.2533 H         1 UNK         0.3144 
     92 H92        24.9119  -49.1232  -57.7440 H         1 UNK         0.0727 
     93 H93        25.5428  -50.1894  -59.9106 H         1 UNK         0.0790 
     94 H94        26.9567  -49.1440  -60.0415 H         1 UNK         0.0790 
     95 H95        25.3393  -48.4602  -60.1397 H         1 UNK         0.0790 
     96 H96        27.6996  -49.6471  -57.1474 H         1 UNK         0.3215 
     97 H97        26.9236  -53.0400  -56.1114 H         1 UNK         0.0863 
     98 H98        29.1916  -51.6685  -57.6487 H         1 UNK         0.0808 
     99 H99        28.3135  -53.1063  -58.1389 H         1 UNK         0.0808 
    100 H100       29.3380  -53.1521  -56.7121 H         1 UNK         0.0808 
    101 H101       28.7379  -50.8832  -55.2731 H         1 UNK         0.3118 
    102 H102       26.8788  -50.1052  -52.3690 H         1 UNK         0.0546 
    103 H103       28.9305  -50.7074  -51.1010 H         1 UNK         0.0828 
    104 H104       29.4703  -51.7381  -52.4245 H         1 UNK         0.0828 
    105 H105       28.0172  -52.1462  -51.5263 H         1 UNK         0.0828 
    106 H106       29.4914  -49.3090  -53.1398 H         1 UNK         0.3005 
    107 H107       28.5333  -46.8432  -55.5446 H         1 UNK         0.1257 
    108 H108       30.0553  -45.5301  -53.9803 H         1 UNK         0.0775 
    109 H109       29.5200  -46.5400  -52.6614 H         1 UNK         0.0775 
    110 H110       27.6818  -43.0726  -52.0680 H         1 UNK         0.0840 
    111 H111       28.9714  -44.1279  -51.5494 H         1 UNK         0.0840 
    112 H112       31.0994  -47.4958  -54.6730 H         1 UNK         0.2987 
    113 H113       31.7056  -50.2447  -56.9337 H         1 UNK         0.0785 
    114 H114       33.6466  -48.7253  -57.3113 H         1 UNK         0.0798 
    115 H115       32.1872  -48.0868  -58.0545 H         1 UNK         0.0798 
    116 H116       32.7755  -47.3958  -56.5519 H         1 UNK         0.0798 
    117 H117       33.3243  -49.2228  -54.8361 H         1 UNK         0.3079 
    118 H118       32.0747  -51.3125  -52.2067 H         1 UNK         0.0794 
    119 H119       34.5030  -51.8220  -52.0456 H         1 UNK         0.0786 
    120 H120       34.7578  -51.2494  -53.6938 H         1 UNK         0.0786 
    121 H121       33.7782  -52.6768  -53.3972 H         1 UNK         0.0786 
    122 H122       34.0688  -49.2287  -52.3785 H         1 UNK         0.3032 
    123 H123       31.9057  -46.5585  -51.4371 H         1 UNK         0.1094 
    124 H124       32.4640  -47.7077  -49.2897 H         1 UNK         0.0794 
    125 H125       34.0992  -48.0134  -49.8585 H         1 UNK         0.0794 
    126 H126       33.5474  -46.3596  -49.5890 H         1 UNK         0.0794 
    127 H127       34.7368  -46.7064  -51.8895 H         1 UNK         0.3016 
@<TRIPOS>BOND
     1    1    2 1    
     2    1   67 1    
     3    1   68 1    
     4    1   69 1    
     5    2    3 2    
     6    2    4 am   BACKBONE|DICT|INTERRES
     7    4    5 1    
     8    4   70 1    
     9    5    6 1    
    10    5   65 1    
    11    5   71 1    
    12    6    7 1    
    13    6   72 1    
    14    6   73 1    
    15    7    8 1    
    16    8    9 1    
    17    8   74 1    
    18    8   75 1    
    19    9   10 ar   
    20    9   14 ar   
    21   10   11 ar   
    22   10   76 1    
    23   11   12 ar   
    24   11   48 1    
    25   12   13 ar   
    26   12   77 1    
    27   13   14 ar   
    28   13   15 1    
    29   14   78 1    
    30   15   16 1    
    31   15   79 1    
    32   15   80 1    
    33   16   17 1    
    34   17   18 1    
    35   17   81 1    
    36   17   82 1    
    37   18   19 1    
    38   18   22 1    
    39   18   83 1    
    40   19   20 am   BACKBONE|DICT|INTERRES
    41   19   21 2    
    42   20   84 1    
    43   20   85 1    
    44   22   23 am   BACKBONE|DICT|INTERRES
    45   22   86 1    
    46   23   24 2    
    47   23   25 1    
    48   25   26 1    
    49   25   27 1    
    50   25   87 1    
    51   26   88 1    
    52   26   89 1    
    53   26   90 1    
    54   27   28 am   BACKBONE|DICT|INTERRES
    55   27   91 1    
    56   28   29 2    
    57   28   30 1    
    58   30   31 1    
    59   30   32 1    
    60   30   92 1    
    61   31   93 1    
    62   31   94 1    
    63   31   95 1    
    64   32   33 am   BACKBONE|DICT|INTERRES
    65   32   96 1    
    66   33   34 2    
    67   33   35 1    
    68   35   36 1    
    69   35   37 1    
    70   35   97 1    
    71   36   98 1    
    72   36   99 1    
    73   36  100 1    
    74   37   38 am   BACKBONE|DICT|INTERRES
    75   37  101 1    
    76   38   39 2    
    77   38   40 1    
    78   40   41 1    
    79   40   42 1    
    80   40  102 1    
    81   41  103 1    
    82   41  104 1    
    83   41  105 1    
    84   42   43 am   BACKBONE|DICT|INTERRES
    85   42  106 1    
    86   43   44 2    
    87   43   45 1    
    88   45   46 1    
    89   45   49 1    
    90   45  107 1    
    91   46   47 1    
    92   46  108 1    
    93   46  109 1    
    94   47   48 1    
    95   48  110 1    
    96   48  111 1    
    97   49   50 am   BACKBONE|DICT|INTERRES
    98   49  112 1    
    99   50   51 2    
   100   50   52 1    
   101   52   53 1    
   102   52   54 1    
   103   52  113 1    
   104   53  114 1    
   105   53  115 1    
   106   53  116 1    
   107   54   55 am   BACKBONE|DICT|INTERRES
   108   54  117 1    
   109   55   56 2    
   110   55   57 1    
   111   57   58 1    
   112   57   59 1    
   113   57  118 1    
   114   58  119 1    
   115   58  120 1    
   116   58  121 1    
   117   59   60 am   BACKBONE|DICT|INTERRES
   118   59  122 1    
   119   60   61 2    
   120   60   62 1    
   121   62   63 1    
   122   62   64 1    
   123   62  123 1    
   124   63  124 1    
   125   63  125 1    
   126   63  126 1    
   127   64   65 am   BACKBONE|DICT|INTERRES
   128   64  127 1    
   129   65   66 2    
@<TRIPOS>SUBSTRUCTURE
     1 UNK         1 GROUP             0       ****    0 ROOT    
