@<TRIPOS>MOLECULE
3R134
127   129    1
SMALL
USER_CHARGES


@<TRIPOS>ATOM
      1 CA         27.7575  -48.8373  -49.9344 C.3       0 UNK        -0.1968 
      2 C          29.0066  -47.9719  -49.8601 C.2       0 UNK         0.4852 
      3 O          29.4687  -47.6523  -48.7634 O.2       0 UNK        -0.5359 
      4 N          29.5546  -47.5942  -51.0201 N.am      1 UNK        -0.4300 
      5 CA         30.8185  -46.8708  -51.1532 C.3       1 UNK         0.0863 
      6 C6         30.8572  -46.0871  -52.4891 C.3       11 UNK        -0.0953 
      7 S7         32.1081  -44.7511  -52.4981 S.3       11 UNK        -0.2369 
      8 C8         31.1983  -43.3457  -53.2376 C.3       11 UNK         0.0226 
      9 C9         31.1572  -43.3235  -54.7687 C.ar      11 UNK        -0.0699 
     10 C10        31.2254  -44.4917  -55.5335 C.ar      11 UNK        -0.0804 
     11 C11        31.1366  -44.4602  -56.9297 C.ar      11 UNK        -0.0871 
     12 C12        31.0220  -43.2235  -57.5704 C.ar      11 UNK        -0.1008 
     13 C13        30.9600  -42.0410  -56.8260 C.ar      11 UNK        -0.0735 
     14 C14        31.0184  -42.0997  -55.4298 C.ar      11 UNK        -0.0945 
     15 C15        30.8444  -40.6935  -57.5223 C.3       11 UNK         0.0169 
     16 S16        29.1197  -40.1168  -57.6059 S.3       11 UNK        -0.2669 
     17 C17        28.4536  -41.1050  -58.9900 C.3       11 UNK        -0.0850 
     18 CA         27.2820  -42.0316  -58.5707 C.3       10 UNK         0.0855 
     19 C          26.6238  -42.6909  -59.8215 C.2       10 UNK         0.5543 
     20 N          26.5751  -44.0122  -59.9489 N.am      10 UNK        -0.7343 
     21 O          26.1398  -41.9806  -60.6994 O.2       10 UNK        -0.5027 
     22 N          27.6775  -42.9792  -57.5164 N.am      10 UNK        -0.4495 
     23 C          26.8188  -43.6255  -56.7224 C.2       10 UNK         0.4903 
     24 O          25.6045  -43.4123  -56.6928 O.2       10 UNK        -0.4860 
     25 CA         27.4173  -44.7162  -55.8220 C.3       9 UNK         0.0227 
     26 CB         27.3899  -44.2924  -54.3457 C.3       9 UNK        -0.1964 
     27 N          26.7049  -45.9839  -55.9817 N.am      9 UNK        -0.4231 
     28 C          26.6101  -46.6867  -57.1185 C.2       9 UNK         0.5014 
     29 O          27.1450  -46.3457  -58.1764 O.2       9 UNK        -0.5270 
     30 CA         25.7696  -47.9792  -57.0607 C.3       8 UNK         0.0284 
     31 CB         25.8704  -48.8183  -58.3486 C.3       8 UNK        -0.1977 
     32 N          26.1016  -48.8232  -55.9061 N.am      8 UNK        -0.4342 
     33 C          25.6421  -48.6275  -54.6611 C.2       8 UNK         0.5039 
     34 O          24.9351  -47.6675  -54.3510 O.2       8 UNK        -0.5547 
     35 CA         26.0251  -49.6438  -53.5714 C.3       7 UNK         0.0281 
     36 CB         24.8717  -50.6304  -53.3289 C.3       7 UNK        -0.1963 
     37 N          27.2442  -50.3961  -53.8684 N.am      7 UNK        -0.4444 
     38 C          28.4827  -49.8919  -53.8071 C.2       7 UNK         0.5104 
     39 O          28.7292  -48.7359  -53.4611 O.2       7 UNK        -0.5100 
     40 CA         29.6440  -50.8295  -54.1890 C.3       6 UNK         0.0396 
     41 CB         29.2770  -52.3304  -54.1892 C.3       6 UNK        -0.1801 
     42 N          30.2455  -50.4503  -55.4687 N.am      6 UNK        -0.4747 
     43 C          29.6280  -50.3181  -56.6561 C.2       6 UNK         0.5012 
     44 O          28.4307  -50.5552  -56.8310 O.2       6 UNK        -0.5003 
     45 CA         30.4794  -49.8204  -57.8506 C.3       5 UNK         0.0782 
     46 C46        30.1275  -48.3639  -58.2473 C.3       11 UNK        -0.0868 
     47 S47        30.3786  -47.1572  -56.9014 S.3       11 UNK        -0.2515 
     48 C48        31.1592  -45.7466  -57.7567 C.3       11 UNK         0.0199 
     49 N          31.9202  -49.9745  -57.6287 N.am      5 UNK        -0.4607 
     50 C          32.5780  -51.1408  -57.6532 C.2       4 UNK         0.5031 
     51 O          32.0522  -52.2121  -57.9557 O.2       4 UNK        -0.5119 
     52 CA         34.0699  -51.1197  -57.2664 C.3       4 UNK         0.0263 
     53 CB         34.9485  -51.1859  -58.5265 C.3       4 UNK        -0.1967 
     54 N          34.4828  -49.9673  -56.4533 N.am      4 UNK        -0.4237 
     55 C          34.0170  -49.6757  -55.2313 C.2       3 UNK         0.4908 
     56 O          33.1287  -50.3153  -54.6624 O.2       3 UNK        -0.5102 
     57 CA         34.6144  -48.4378  -54.5553 C.3       3 UNK         0.0241 
     58 CB         34.0205  -47.1494  -55.1541 C.3       3 UNK        -0.1971 
     59 N          34.3112  -48.4927  -53.1297 N.am      3 UNK        -0.4139 
     60 C          35.0356  -47.9528  -52.1450 C.2       2 UNK         0.5016 
     61 O          36.0926  -47.3453  -52.3276 O.2       2 UNK        -0.5319 
     62 CA         34.4462  -48.0778  -50.7251 C.3       2 UNK         0.0286 
     63 CB         35.3861  -47.5242  -49.6377 C.3       2 UNK        -0.1963 
     64 N          33.1656  -47.3702  -50.6498 N.am      2 UNK        -0.4790 
     65 C          31.9940  -47.8654  -51.0668 C.2       1 UNK         0.5024 
     66 O          31.8504  -49.0325  -51.4423 O.2       1 UNK        -0.4888 
     67 H67        27.6829  -49.4762  -49.0547 H         1 UNK         0.0892 
     68 H68        27.7748  -49.4821  -50.8120 H         1 UNK         0.0892 
     69 H69        26.8665  -48.2119  -49.9795 H         1 UNK         0.0892 
     70 H70        29.1724  -47.9495  -51.8964 H         1 UNK         0.3107 
     71 H71        30.8961  -46.1614  -50.3261 H         1 UNK         0.0773 
     72 H72        29.8822  -45.6368  -52.6754 H         1 UNK         0.0680 
     73 H73        31.0323  -46.7659  -53.3261 H         1 UNK         0.0680 
     74 H74        30.1798  -43.3200  -52.8490 H         1 UNK         0.0650 
     75 H75        31.6799  -42.4329  -52.8840 H         1 UNK         0.0650 
     76 H76        31.3303  -45.4422  -55.0421 H         1 UNK         0.1397 
     77 H77        30.9782  -43.1814  -58.6502 H         1 UNK         0.1363 
     78 H78        30.9584  -41.1844  -54.8566 H         1 UNK         0.1355 
     79 H79        31.2733  -40.7352  -58.5248 H         1 UNK         0.0707 
     80 H80        31.4317  -39.9533  -56.9768 H         1 UNK         0.0707 
     81 H81        29.2485  -41.6857  -59.4594 H         1 UNK         0.1034 
     82 H82        28.1204  -40.3966  -59.7511 H         1 UNK         0.1034 
     83 H83        26.5084  -41.3893  -58.1452 H         1 UNK         0.0482 
     84 H84        26.9348  -44.6315  -59.2302 H         1 UNK         0.3460 
     85 H85        26.1423  -44.4062  -60.7686 H         1 UNK         0.3460 
     86 H86        28.6623  -43.1966  -57.4573 H         1 UNK         0.2989 
     87 H87        28.4541  -44.8891  -56.1105 H         1 UNK         0.0559 
     88 H88        27.8260  -45.0589  -53.7058 H         1 UNK         0.0848 
     89 H89        26.3731  -44.1044  -53.9985 H         1 UNK         0.0848 
     90 H90        27.9625  -43.3764  -54.1953 H         1 UNK         0.0848 
     91 H91        26.1780  -46.3266  -55.1848 H         1 UNK         0.3144 
     92 H92        24.7283  -47.6628  -56.9688 H         1 UNK         0.0727 
     93 H93        25.2245  -49.6951  -58.3019 H         1 UNK         0.0790 
     94 H94        26.8878  -49.1624  -58.5302 H         1 UNK         0.0790 
     95 H95        25.5627  -48.2379  -59.2194 H         1 UNK         0.0790 
     96 H96        26.7562  -49.5806  -56.0770 H         1 UNK         0.3215 
     97 H97        26.1859  -49.0789  -52.6510 H         1 UNK         0.0863 
     98 H98        24.6648  -51.2363  -54.2120 H         1 UNK         0.0808 
     99 H99        23.9523  -50.1005  -53.0753 H         1 UNK         0.0808 
    100 H100       25.0927  -51.3046  -52.5011 H         1 UNK         0.0808 
    101 H101       27.1303  -51.3485  -54.1839 H         1 UNK         0.3118 
    102 H102       30.4159  -50.6800  -53.4322 H         1 UNK         0.0546 
    103 H103       28.5600  -52.5864  -54.9698 H         1 UNK         0.0828 
    104 H104       30.1639  -52.9434  -54.3505 H         1 UNK         0.0828 
    105 H105       28.8528  -52.6335  -53.2309 H         1 UNK         0.0828 
    106 H106       31.2350  -50.2301  -55.4186 H         1 UNK         0.3005 
    107 H107       30.2093  -50.4595  -58.6947 H         1 UNK         0.1257 
    108 H108       29.0869  -48.2993  -58.5666 H         1 UNK         0.0775 
    109 H109       30.7177  -48.0676  -59.1158 H         1 UNK         0.0775 
    110 H110       32.1912  -45.9990  -58.0032 H         1 UNK         0.0840 
    111 H111       30.6354  -45.5853  -58.7004 H         1 UNK         0.0840 
    112 H112       32.4224  -49.1379  -57.3725 H         1 UNK         0.2987 
    113 H113       34.2553  -52.0183  -56.6740 H         1 UNK         0.0785 
    114 H114       34.8288  -50.2984  -59.1493 H         1 UNK         0.0798 
    115 H115       34.6892  -52.0507  -59.1393 H         1 UNK         0.0798 
    116 H116       36.0043  -51.2794  -58.2715 H         1 UNK         0.0798 
    117 H117       35.2006  -49.3767  -56.8492 H         1 UNK         0.3079 
    118 H118       35.6970  -48.4519  -54.6992 H         1 UNK         0.0794 
    119 H119       32.9352  -47.1324  -55.0558 H         1 UNK         0.0786 
    120 H120       34.2552  -47.0560  -56.2149 H         1 UNK         0.0786 
    121 H121       34.4116  -46.2609  -54.6577 H         1 UNK         0.0786 
    122 H122       33.4680  -49.0094  -52.8960 H         1 UNK         0.3032 
    123 H123       34.2916  -49.1409  -50.5248 H         1 UNK         0.1094 
    124 H124       35.5835  -46.4602  -49.7748 H         1 UNK         0.0794 
    125 H125       34.9638  -47.6611  -48.6420 H         1 UNK         0.0794 
    126 H126       36.3474  -48.0395  -49.6541 H         1 UNK         0.0794 
    127 H127       33.2138  -46.3865  -50.4219 H         1 UNK         0.3016 
@<TRIPOS>BOND
     1    1    2 1    
     2    1   67 1    
     3    1   68 1    
     4    1   69 1    
     5    2    3 2    
     6    2    4 am   BACKBONE|DICT|INTERRES
     7    4    5 1    
     8    4   70 1    
     9    5    6 1    
    10    5   65 1    
    11    5   71 1    
    12    6    7 1    
    13    6   72 1    
    14    6   73 1    
    15    7    8 1    
    16    8    9 1    
    17    8   74 1    
    18    8   75 1    
    19    9   10 ar   
    20    9   14 ar   
    21   10   11 ar   
    22   10   76 1    
    23   11   12 ar   
    24   11   48 1    
    25   12   13 ar   
    26   12   77 1    
    27   13   14 ar   
    28   13   15 1    
    29   14   78 1    
    30   15   16 1    
    31   15   79 1    
    32   15   80 1    
    33   16   17 1    
    34   17   18 1    
    35   17   81 1    
    36   17   82 1    
    37   18   19 1    
    38   18   22 1    
    39   18   83 1    
    40   19   20 am   BACKBONE|DICT|INTERRES
    41   19   21 2    
    42   20   84 1    
    43   20   85 1    
    44   22   23 am   BACKBONE|DICT|INTERRES
    45   22   86 1    
    46   23   24 2    
    47   23   25 1    
    48   25   26 1    
    49   25   27 1    
    50   25   87 1    
    51   26   88 1    
    52   26   89 1    
    53   26   90 1    
    54   27   28 am   BACKBONE|DICT|INTERRES
    55   27   91 1    
    56   28   29 2    
    57   28   30 1    
    58   30   31 1    
    59   30   32 1    
    60   30   92 1    
    61   31   93 1    
    62   31   94 1    
    63   31   95 1    
    64   32   33 am   BACKBONE|DICT|INTERRES
    65   32   96 1    
    66   33   34 2    
    67   33   35 1    
    68   35   36 1    
    69   35   37 1    
    70   35   97 1    
    71   36   98 1    
    72   36   99 1    
    73   36  100 1    
    74   37   38 am   BACKBONE|DICT|INTERRES
    75   37  101 1    
    76   38   39 2    
    77   38   40 1    
    78   40   41 1    
    79   40   42 1    
    80   40  102 1    
    81   41  103 1    
    82   41  104 1    
    83   41  105 1    
    84   42   43 am   BACKBONE|DICT|INTERRES
    85   42  106 1    
    86   43   44 2    
    87   43   45 1    
    88   45   46 1    
    89   45   49 1    
    90   45  107 1    
    91   46   47 1    
    92   46  108 1    
    93   46  109 1    
    94   47   48 1    
    95   48  110 1    
    96   48  111 1    
    97   49   50 am   BACKBONE|DICT|INTERRES
    98   49  112 1    
    99   50   51 2    
   100   50   52 1    
   101   52   53 1    
   102   52   54 1    
   103   52  113 1    
   104   53  114 1    
   105   53  115 1    
   106   53  116 1    
   107   54   55 am   BACKBONE|DICT|INTERRES
   108   54  117 1    
   109   55   56 2    
   110   55   57 1    
   111   57   58 1    
   112   57   59 1    
   113   57  118 1    
   114   58  119 1    
   115   58  120 1    
   116   58  121 1    
   117   59   60 am   BACKBONE|DICT|INTERRES
   118   59  122 1    
   119   60   61 2    
   120   60   62 1    
   121   62   63 1    
   122   62   64 1    
   123   62  123 1    
   124   63  124 1    
   125   63  125 1    
   126   63  126 1    
   127   64   65 am   BACKBONE|DICT|INTERRES
   128   64  127 1    
   129   65   66 2    
@<TRIPOS>SUBSTRUCTURE
     1 UNK         1 GROUP             0       ****    0 ROOT    
