@<TRIPOS>MOLECULE
3R134
127   129    1
SMALL
USER_CHARGES


@<TRIPOS>ATOM
      1 CA         32.0815  -46.6139  -57.4997 C.3       0 UNK        -0.1968 
      2 C          32.3879  -46.5215  -56.0138 C.2       0 UNK         0.4852 
      3 O          32.0879  -47.4560  -55.2692 O.2       0 UNK        -0.5359 
      4 N          33.0069  -45.4144  -55.5805 N.am      1 UNK        -0.4300 
      5 CA         33.4540  -45.1909  -54.1997 C.3       1 UNK         0.0863 
      6 C6         33.9499  -43.7403  -53.9440 C.3       11 UNK        -0.0953 
      7 S7         32.8913  -42.4362  -54.6576 S.3       11 UNK        -0.2369 
      8 C8         31.8501  -41.9657  -53.2416 C.3       11 UNK         0.0226 
      9 C9         30.7935  -43.0179  -52.9412 C.ar      11 UNK        -0.0699 
     10 C10        30.7737  -43.6731  -51.7070 C.ar      11 UNK        -0.0804 
     11 C11        29.7885  -44.6247  -51.4265 C.ar      11 UNK        -0.0871 
     12 C12        28.8320  -44.9341  -52.3994 C.ar      11 UNK        -0.1008 
     13 C13        28.8480  -44.2919  -53.6412 C.ar      11 UNK        -0.0735 
     14 C14        29.8210  -43.3227  -53.8975 C.ar      11 UNK        -0.0945 
     15 C15        27.8132  -44.6434  -54.7006 C.3       11 UNK         0.0169 
     16 S16        28.5461  -45.6404  -56.0341 S.3       11 UNK        -0.2669 
     17 C17        29.0155  -44.3792  -57.2700 C.3       11 UNK        -0.0850 
     18 CA         28.2230  -44.4941  -58.5973 C.3       10 UNK         0.0855 
     19 C          28.6142  -45.7552  -59.4205 C.2       10 UNK         0.5543 
     20 N          27.7619  -46.7646  -59.5468 N.am      10 UNK        -0.7343 
     21 O          29.7109  -45.8061  -59.9711 O.2       10 UNK        -0.5027 
     22 N          26.7796  -44.3056  -58.3874 N.am      10 UNK        -0.4495 
     23 C          25.9336  -43.8592  -59.3214 C.2       10 UNK         0.4903 
     24 O          26.2657  -43.5955  -60.4786 O.2       10 UNK        -0.4860 
     25 CA         24.4725  -43.6668  -58.8792 C.3       9 UNK         0.0227 
     26 CB         23.6713  -42.7889  -59.8596 C.3       9 UNK        -0.1964 
     27 N          23.7889  -44.9496  -58.7272 N.am      9 UNK        -0.4231 
     28 C          23.8970  -45.7681  -57.6737 C.2       9 UNK         0.5014 
     29 O          24.5968  -45.5162  -56.6895 O.2       9 UNK        -0.5270 
     30 CA         23.0419  -47.0530  -57.7024 C.3       8 UNK         0.0284 
     31 CB         22.6359  -47.5064  -59.1252 C.3       8 UNK        -0.1977 
     32 N          23.6544  -48.1637  -56.9647 N.am      8 UNK        -0.4342 
     33 C          24.8250  -48.7607  -57.2270 C.2       8 UNK         0.5039 
     34 O          25.5722  -48.4530  -58.1601 O.2       8 UNK        -0.5547 
     35 CA         25.1753  -49.9574  -56.3246 C.3       7 UNK         0.0281 
     36 CB         24.5519  -51.2480  -56.8827 C.3       7 UNK        -0.1963 
     37 N          26.6207  -50.1456  -56.1995 N.am      7 UNK        -0.4444 
     38 C          27.4245  -49.3515  -55.4829 C.2       7 UNK         0.5104 
     39 O          27.0145  -48.4106  -54.7987 O.2       7 UNK        -0.5100 
     40 CA         28.9316  -49.6846  -55.5601 C.3       6 UNK         0.0396 
     41 CB         29.4874  -49.3228  -56.9480 C.3       6 UNK        -0.1801 
     42 N          29.7430  -49.0165  -54.5359 N.am      6 UNK        -0.4747 
     43 C          29.5929  -49.1599  -53.2119 C.2       6 UNK         0.5012 
     44 O          28.8045  -49.9546  -52.6930 O.2       6 UNK        -0.5003 
     45 CA         30.4969  -48.2763  -52.3296 C.3       5 UNK         0.0782 
     46 C46        29.8549  -47.9735  -50.9477 C.3       11 UNK        -0.0868 
     47 S47        30.8208  -46.7600  -49.9869 S.3       11 UNK        -0.2515 
     48 C48        29.7462  -45.2940  -50.0606 C.3       11 UNK         0.0199 
     49 N          31.8456  -48.8466  -52.2348 N.am      5 UNK        -0.4607 
     50 C          32.1999  -49.9966  -51.6415 C.2       4 UNK         0.5031 
     51 O          31.4187  -50.7665  -51.0808 O.2       4 UNK        -0.5119 
     52 CA         33.7024  -50.3238  -51.6739 C.3       4 UNK         0.0263 
     53 CB         34.0451  -51.7210  -51.1116 C.3       4 UNK        -0.1967 
     54 N          34.2736  -50.1278  -53.0083 N.am      4 UNK        -0.4237 
     55 C          33.9970  -50.8017  -54.1364 C.2       3 UNK         0.4908 
     56 O          33.2264  -51.7609  -54.1899 O.2       3 UNK        -0.5102 
     57 CA         34.6904  -50.3234  -55.4314 C.3       3 UNK         0.0241 
     58 CB         33.7320  -50.3597  -56.6355 C.3       3 UNK        -0.1971 
     59 N          35.2443  -48.9716  -55.3108 N.am      3 UNK        -0.4139 
     60 C          36.4286  -48.6603  -54.7665 C.2       2 UNK         0.5016 
     61 O          37.2411  -49.4995  -54.3789 O.2       2 UNK        -0.5319 
     62 CA         36.7459  -47.1661  -54.5770 C.3       2 UNK         0.0286 
     63 CB         37.8158  -46.7124  -55.5836 C.3       2 UNK        -0.1963 
     64 N          35.5784  -46.2855  -54.6961 N.am      2 UNK        -0.4790 
     65 C          34.5603  -46.1985  -53.8241 C.2       1 UNK         0.5024 
     66 O          34.4547  -46.8968  -52.8149 O.2       1 UNK        -0.4888 
     67 H67        31.0134  -46.7500  -57.6538 H         1 UNK         0.0892 
     68 H68        32.3888  -45.7185  -58.0393 H         1 UNK         0.0892 
     69 H69        32.5973  -47.4682  -57.9369 H         1 UNK         0.0892 
     70 H70        33.1972  -44.6601  -56.2248 H         1 UNK         0.3107 
     71 H71        32.5978  -45.3767  -53.5471 H         1 UNK         0.0773 
     72 H72        34.9426  -43.5879  -54.3722 H         1 UNK         0.0680 
     73 H73        34.0615  -43.5667  -52.8721 H         1 UNK         0.0680 
     74 H74        32.4802  -41.7734  -52.3719 H         1 UNK         0.0650 
     75 H75        31.3510  -41.0239  -53.4731 H         1 UNK         0.0650 
     76 H76        31.5176  -43.4361  -50.9586 H         1 UNK         0.1397 
     77 H77        28.0699  -45.6722  -52.1909 H         1 UNK         0.1363 
     78 H78        29.8371  -42.8129  -54.8497 H         1 UNK         0.1355 
     79 H79        26.9995  -45.2202  -54.2578 H         1 UNK         0.0707 
     80 H80        27.3558  -43.7380  -55.1015 H         1 UNK         0.0707 
     81 H81        30.0879  -44.4516  -57.4554 H         1 UNK         0.1034 
     82 H82        28.8666  -43.3823  -56.8559 H         1 UNK         0.1034 
     83 H83        28.5556  -43.6522  -59.2083 H         1 UNK         0.0482 
     84 H84        26.8863  -46.7813  -59.0425 H         1 UNK         0.3460 
     85 H85        28.0312  -47.5667  -60.0921 H         1 UNK         0.3460 
     86 H86        26.4074  -44.5969  -57.4905 H         1 UNK         0.2989 
     87 H87        24.4838  -43.1539  -57.9148 H         1 UNK         0.0559 
     88 H88        22.6620  -42.6029  -59.4921 H         1 UNK         0.0848 
     89 H89        23.5898  -43.2484  -60.8456 H         1 UNK         0.0848 
     90 H90        24.1493  -41.8173  -59.9921 H         1 UNK         0.0848 
     91 H91        23.2153  -45.2477  -59.5029 H         1 UNK         0.3144 
     92 H92        22.1252  -46.8091  -57.1637 H         1 UNK         0.0727 
     93 H93        22.0847  -48.4465  -59.0943 H         1 UNK         0.0790 
     94 H94        23.5043  -47.6565  -59.7684 H         1 UNK         0.0790 
     95 H95        21.9832  -46.7789  -59.6088 H         1 UNK         0.0790 
     96 H96        23.1346  -48.4790  -56.1573 H         1 UNK         0.3215 
     97 H97        24.7677  -49.7761  -55.3273 H         1 UNK         0.0863 
     98 H98        24.7610  -52.1024  -56.2385 H         1 UNK         0.0808 
     99 H99        24.9277  -51.4782  -57.8807 H         1 UNK         0.0808 
    100 H100       23.4672  -51.1593  -56.9575 H         1 UNK         0.0808 
    101 H101       27.0326  -50.8688  -56.7703 H         1 UNK         0.3118 
    102 H102       29.0469  -50.7598  -55.4097 H         1 UNK         0.0546 
    103 H103       29.3155  -48.2729  -57.1827 H         1 UNK         0.0828 
    104 H104       29.0058  -49.9070  -57.7327 H         1 UNK         0.0828 
    105 H105       30.5573  -49.5144  -57.0165 H         1 UNK         0.0828 
    106 H106       30.4542  -48.3702  -54.8710 H         1 UNK         0.3005 
    107 H107       30.6035  -47.3227  -52.8513 H         1 UNK         0.1257 
    108 H108       29.7621  -48.8813  -50.3500 H         1 UNK         0.0775 
    109 H109       28.8354  -47.6070  -51.0732 H         1 UNK         0.0775 
    110 H110       28.7237  -45.5678  -49.7956 H         1 UNK         0.0840 
    111 H111       30.0714  -44.5858  -49.2969 H         1 UNK         0.0840 
    112 H112       32.5722  -48.3009  -52.6801 H         1 UNK         0.2987 
    113 H113       34.1837  -49.5873  -51.0282 H         1 UNK         0.0785 
    114 H114       35.1180  -51.9099  -51.1446 H         1 UNK         0.0798 
    115 H115       33.5463  -52.5175  -51.6644 H         1 UNK         0.0798 
    116 H116       33.7330  -51.8072  -50.0701 H         1 UNK         0.0798 
    117 H117       34.9019  -49.3403  -53.0884 H         1 UNK         0.3079 
    118 H118       35.5060  -51.0216  -55.6310 H         1 UNK         0.0794 
    119 H119       33.3746  -51.3728  -56.8244 H         1 UNK         0.0786 
    120 H120       34.2226  -50.0172  -57.5468 H         1 UNK         0.0786 
    121 H121       32.8570  -49.7331  -56.4673 H         1 UNK         0.0786 
    122 H122       34.6267  -48.2127  -55.5613 H         1 UNK         0.3032 
    123 H123       37.1515  -47.0522  -53.5689 H         1 UNK         0.1094 
    124 H124       38.1139  -45.6785  -55.4082 H         1 UNK         0.0794 
    125 H125       38.7156  -47.3239  -55.5003 H         1 UNK         0.0794 
    126 H126       37.4627  -46.7919  -56.6126 H         1 UNK         0.0794 
    127 H127       35.5571  -45.6835  -55.5070 H         1 UNK         0.3016 
@<TRIPOS>BOND
     1    1    2 1    
     2    1   67 1    
     3    1   68 1    
     4    1   69 1    
     5    2    3 2    
     6    2    4 am   BACKBONE|DICT|INTERRES
     7    4    5 1    
     8    4   70 1    
     9    5    6 1    
    10    5   65 1    
    11    5   71 1    
    12    6    7 1    
    13    6   72 1    
    14    6   73 1    
    15    7    8 1    
    16    8    9 1    
    17    8   74 1    
    18    8   75 1    
    19    9   10 ar   
    20    9   14 ar   
    21   10   11 ar   
    22   10   76 1    
    23   11   12 ar   
    24   11   48 1    
    25   12   13 ar   
    26   12   77 1    
    27   13   14 ar   
    28   13   15 1    
    29   14   78 1    
    30   15   16 1    
    31   15   79 1    
    32   15   80 1    
    33   16   17 1    
    34   17   18 1    
    35   17   81 1    
    36   17   82 1    
    37   18   19 1    
    38   18   22 1    
    39   18   83 1    
    40   19   20 am   BACKBONE|DICT|INTERRES
    41   19   21 2    
    42   20   84 1    
    43   20   85 1    
    44   22   23 am   BACKBONE|DICT|INTERRES
    45   22   86 1    
    46   23   24 2    
    47   23   25 1    
    48   25   26 1    
    49   25   27 1    
    50   25   87 1    
    51   26   88 1    
    52   26   89 1    
    53   26   90 1    
    54   27   28 am   BACKBONE|DICT|INTERRES
    55   27   91 1    
    56   28   29 2    
    57   28   30 1    
    58   30   31 1    
    59   30   32 1    
    60   30   92 1    
    61   31   93 1    
    62   31   94 1    
    63   31   95 1    
    64   32   33 am   BACKBONE|DICT|INTERRES
    65   32   96 1    
    66   33   34 2    
    67   33   35 1    
    68   35   36 1    
    69   35   37 1    
    70   35   97 1    
    71   36   98 1    
    72   36   99 1    
    73   36  100 1    
    74   37   38 am   BACKBONE|DICT|INTERRES
    75   37  101 1    
    76   38   39 2    
    77   38   40 1    
    78   40   41 1    
    79   40   42 1    
    80   40  102 1    
    81   41  103 1    
    82   41  104 1    
    83   41  105 1    
    84   42   43 am   BACKBONE|DICT|INTERRES
    85   42  106 1    
    86   43   44 2    
    87   43   45 1    
    88   45   46 1    
    89   45   49 1    
    90   45  107 1    
    91   46   47 1    
    92   46  108 1    
    93   46  109 1    
    94   47   48 1    
    95   48  110 1    
    96   48  111 1    
    97   49   50 am   BACKBONE|DICT|INTERRES
    98   49  112 1    
    99   50   51 2    
   100   50   52 1    
   101   52   53 1    
   102   52   54 1    
   103   52  113 1    
   104   53  114 1    
   105   53  115 1    
   106   53  116 1    
   107   54   55 am   BACKBONE|DICT|INTERRES
   108   54  117 1    
   109   55   56 2    
   110   55   57 1    
   111   57   58 1    
   112   57   59 1    
   113   57  118 1    
   114   58  119 1    
   115   58  120 1    
   116   58  121 1    
   117   59   60 am   BACKBONE|DICT|INTERRES
   118   59  122 1    
   119   60   61 2    
   120   60   62 1    
   121   62   63 1    
   122   62   64 1    
   123   62  123 1    
   124   63  124 1    
   125   63  125 1    
   126   63  126 1    
   127   64   65 am   BACKBONE|DICT|INTERRES
   128   64  127 1    
   129   65   66 2    
@<TRIPOS>SUBSTRUCTURE
     1 UNK         1 GROUP             0       ****    0 ROOT    
