@<TRIPOS>MOLECULE
3R134
127   129    1
SMALL
USER_CHARGES


@<TRIPOS>ATOM
      1 CA         35.5569  -43.5155  -51.8600 C.3       0 UNK        -0.1968 
      2 C          36.0653  -44.8004  -52.4964 C.2       0 UNK         0.4852 
      3 O          37.1664  -45.2504  -52.1750 O.2       0 UNK        -0.5359 
      4 N          35.2742  -45.3879  -53.4013 N.am      1 UNK        -0.4300 
      5 CA         35.5443  -46.6677  -54.0592 C.3       1 UNK         0.0863 
      6 C6         34.7118  -46.8511  -55.3586 C.3       11 UNK        -0.0953 
      7 S7         32.9489  -46.3775  -55.2245 S.3       11 UNK        -0.2369 
      8 C8         33.0083  -44.7330  -56.0090 C.3       11 UNK         0.0226 
      9 C9         31.7023  -43.9599  -55.8834 C.ar      11 UNK        -0.0699 
     10 C10        31.1492  -43.6953  -54.6266 C.ar      11 UNK        -0.0804 
     11 C11        29.9741  -42.9445  -54.5071 C.ar      11 UNK        -0.0871 
     12 C12        29.3702  -42.4294  -55.6581 C.ar      11 UNK        -0.1008 
     13 C13        29.9218  -42.6717  -56.9190 C.ar      11 UNK        -0.0735 
     14 C14        31.0802  -43.4471  -57.0253 C.ar      11 UNK        -0.0945 
     15 C15        29.3026  -42.0568  -58.1654 C.3       11 UNK         0.0169 
     16 S16        28.0038  -43.1124  -58.8761 S.3       11 UNK        -0.2669 
     17 C17        26.5067  -42.5641  -57.9800 C.3       11 UNK        -0.0850 
     18 CA         26.0276  -43.5631  -56.8839 C.3       10 UNK         0.0855 
     19 C          24.7781  -43.0639  -56.0979 C.2       10 UNK         0.5543 
     20 N          24.7538  -41.8027  -55.6861 N.am      10 UNK        -0.7343 
     21 O          23.8430  -43.8104  -55.8142 O.2       10 UNK        -0.5027 
     22 N          25.8905  -44.9428  -57.3712 N.am      10 UNK        -0.4495 
     23 C          25.1031  -45.3890  -58.3587 C.2       10 UNK         0.4903 
     24 O          24.3600  -44.6740  -59.0333 O.2       10 UNK        -0.4860 
     25 CA         25.1698  -46.9060  -58.6276 C.3       9 UNK         0.0227 
     26 CB         24.5728  -47.3182  -59.9899 C.3       9 UNK        -0.1964 
     27 N          26.5262  -47.4354  -58.4432 N.am      9 UNK        -0.4231 
     28 C          27.6249  -47.1719  -59.1685 C.2       9 UNK         0.5014 
     29 O          27.6240  -46.5427  -60.2266 O.2       9 UNK        -0.5270 
     30 CA         28.9671  -47.6869  -58.6106 C.3       8 UNK         0.0284 
     31 CB         29.7607  -46.5330  -57.9752 C.3       8 UNK        -0.1977 
     32 N          28.8128  -48.7581  -57.6230 N.am      8 UNK        -0.4342 
     33 C          28.4525  -50.0150  -57.9152 C.2       8 UNK         0.5039 
     34 O          28.2887  -50.4343  -59.0613 O.2       8 UNK        -0.5547 
     35 CA         28.2058  -50.9537  -56.7254 C.3       7 UNK         0.0281 
     36 CB         29.5106  -51.6422  -56.3073 C.3       7 UNK        -0.1963 
     37 N          27.6283  -50.2464  -55.5787 N.am      7 UNK        -0.4444 
     38 C          26.3407  -49.8794  -55.5025 C.2       7 UNK         0.5104 
     39 O          25.5062  -50.1331  -56.3706 O.2       7 UNK        -0.5100 
     40 CA         25.9082  -49.0673  -54.2689 C.3       6 UNK         0.0396 
     41 CB         25.4878  -50.0071  -53.1284 C.3       6 UNK        -0.1801 
     42 N          26.9351  -48.1439  -53.7830 N.am      6 UNK        -0.4747 
     43 C          27.4282  -47.1045  -54.4726 C.2       6 UNK         0.5012 
     44 O          27.0571  -46.7997  -55.6043 O.2       6 UNK        -0.5003 
     45 CA         28.5491  -46.2898  -53.7997 C.3       5 UNK         0.0782 
     46 C46        27.9395  -45.0893  -53.0309 C.3       11 UNK        -0.0868 
     47 S47        29.1790  -44.1265  -52.0979 S.3       11 UNK        -0.2515 
     48 C48        29.3794  -42.6424  -53.1365 C.3       11 UNK         0.0199 
     49 N          29.4225  -47.1084  -52.9491 N.am      5 UNK        -0.4607 
     50 C          30.1306  -48.1761  -53.3384 C.2       4 UNK         0.5031 
     51 O          30.0631  -48.6672  -54.4683 O.2       4 UNK        -0.5119 
     52 CA         31.0466  -48.7716  -52.2563 C.3       4 UNK         0.0263 
     53 CB         30.2361  -49.4218  -51.1146 C.3       4 UNK        -0.1967 
     54 N          32.0650  -49.6803  -52.7925 N.am      4 UNK        -0.4237 
     55 C          31.9181  -50.9278  -53.2687 C.2       3 UNK         0.4908 
     56 O          30.8584  -51.5539  -53.2577 O.2       3 UNK        -0.5102 
     57 CA         33.1690  -51.6136  -53.8571 C.3       3 UNK         0.0241 
     58 CB         33.0401  -51.7713  -55.3793 C.3       3 UNK        -0.1971 
     59 N          34.4173  -50.9061  -53.5653 N.am      3 UNK        -0.4139 
     60 C          35.0511  -50.9220  -52.3858 C.2       2 UNK         0.5016 
     61 O          34.6975  -51.6056  -51.4255 O.2       2 UNK        -0.5319 
     62 CA         36.2742  -49.9984  -52.2461 C.3       2 UNK         0.0286 
     63 CB         37.5726  -50.7869  -52.4829 C.3       2 UNK        -0.1963 
     64 N          36.2507  -48.8283  -53.1346 N.am      2 UNK        -0.4790 
     65 C          35.3507  -47.8358  -53.0729 C.2       1 UNK         0.5024 
     66 O          34.3901  -47.8346  -52.3001 O.2       1 UNK        -0.4888 
     67 H67        34.5677  -43.2415  -52.2260 H         1 UNK         0.0892 
     68 H68        35.4977  -43.6315  -50.7791 H         1 UNK         0.0892 
     69 H69        36.2376  -42.6940  -52.0784 H         1 UNK         0.0892 
     70 H70        34.3591  -45.0054  -53.5875 H         1 UNK         0.3107 
     71 H71        36.5967  -46.6628  -54.3512 H         1 UNK         0.0773 
     72 H72        35.1673  -46.2612  -56.1550 H         1 UNK         0.0680 
     73 H73        34.7631  -47.8823  -55.7121 H         1 UNK         0.0680 
     74 H74        33.8038  -44.1401  -55.5571 H         1 UNK         0.0650 
     75 H75        33.2785  -44.8622  -57.0581 H         1 UNK         0.0650 
     76 H76        31.6346  -44.0748  -53.7382 H         1 UNK         0.1397 
     77 H77        28.4800  -41.8218  -55.5742 H         1 UNK         0.1363 
     78 H78        31.5114  -43.6290  -58.0002 H         1 UNK         0.1355 
     79 H79        28.9125  -41.0615  -57.9484 H         1 UNK         0.0707 
     80 H80        30.0745  -41.9106  -58.9225 H         1 UNK         0.0707 
     81 H81        25.7167  -42.4092  -58.7163 H         1 UNK         0.1034 
     82 H82        26.6971  -41.5807  -57.5505 H         1 UNK         0.1034 
     83 H83        26.8155  -43.6280  -56.1342 H         1 UNK         0.0482 
     84 H84        25.5105  -41.1665  -55.8758 H         1 UNK         0.3460 
     85 H85        23.9537  -41.4805  -55.1644 H         1 UNK         0.3460 
     86 H86        26.4073  -45.6351  -56.8347 H         1 UNK         0.2989 
     87 H87        24.5630  -47.3751  -57.8519 H         1 UNK         0.0559 
     88 H88        25.0701  -46.8173  -60.8205 H         1 UNK         0.0848 
     89 H89        23.5153  -47.0589  -60.0447 H         1 UNK         0.0848 
     90 H90        24.6516  -48.3935  -60.1489 H         1 UNK         0.0848 
     91 H91        26.6735  -47.9271  -57.5718 H         1 UNK         0.3144 
     92 H92        29.5450  -48.0773  -59.4507 H         1 UNK         0.0727 
     93 H93        30.7241  -46.8695  -57.5925 H         1 UNK         0.0790 
     94 H94        29.2166  -46.0680  -57.1528 H         1 UNK         0.0790 
     95 H95        29.9587  -45.7506  -58.7085 H         1 UNK         0.0790 
     96 H96        28.9644  -48.5155  -56.6522 H         1 UNK         0.3215 
     97 H97        27.5047  -51.7262  -57.0488 H         1 UNK         0.0863 
     98 H98        30.2562  -50.9168  -55.9825 H         1 UNK         0.0808 
     99 H99        29.9402  -52.2039  -57.1376 H         1 UNK         0.0808 
    100 H100       29.3464  -52.3438  -55.4896 H         1 UNK         0.0808 
    101 H101       28.2695  -49.9568  -54.8496 H         1 UNK         0.3118 
    102 H102       25.0396  -48.4711  -54.5565 H         1 UNK         0.0546 
    103 H103       25.0910  -49.4501  -52.2797 H         1 UNK         0.0828 
    104 H104       26.3229  -50.6125  -52.7734 H         1 UNK         0.0828 
    105 H105       24.7055  -50.6928  -53.4567 H         1 UNK         0.0828 
    106 H106       27.3111  -48.3227  -52.8631 H         1 UNK         0.3005 
    107 H107       29.1756  -45.8964  -54.6033 H         1 UNK         0.1257 
    108 H108       27.1937  -45.4350  -52.3124 H         1 UNK         0.0775 
    109 H109       27.4098  -44.4257  -53.7173 H         1 UNK         0.0775 
    110 H110       28.4124  -42.1454  -53.2291 H         1 UNK         0.0840 
    111 H111       30.0357  -41.9408  -52.6201 H         1 UNK         0.0840 
    112 H112       29.5472  -46.7603  -52.0093 H         1 UNK         0.2987 
    113 H113       31.6098  -47.9390  -51.8314 H         1 UNK         0.0785 
    114 H114       30.8919  -49.8880  -50.3793 H         1 UNK         0.0798 
    115 H115       29.6368  -48.6810  -50.5847 H         1 UNK         0.0798 
    116 H116       29.5495  -50.1847  -51.4826 H         1 UNK         0.0798 
    117 H117       32.9878  -49.2652  -52.8463 H         1 UNK         0.3079 
    118 H118       33.2291  -52.6100  -53.4168 H         1 UNK         0.0794 
    119 H119       32.1895  -52.4042  -55.6314 H         1 UNK         0.0786 
    120 H120       33.9245  -52.2418  -55.8071 H         1 UNK         0.0786 
    121 H121       32.8947  -50.8117  -55.8745 H         1 UNK         0.0786 
    122 H122       34.7952  -50.3248  -54.2985 H         1 UNK         0.3032 
    123 H123       36.2789  -49.6321  -51.2172 H         1 UNK         0.1094 
    124 H124       37.6389  -51.1600  -53.5052 H         1 UNK         0.0794 
    125 H125       38.4520  -50.1723  -52.2908 H         1 UNK         0.0794 
    126 H126       37.6326  -51.6489  -51.8175 H         1 UNK         0.0794 
    127 H127       37.0084  -48.7561  -53.7996 H         1 UNK         0.3016 
@<TRIPOS>BOND
     1    1    2 1    
     2    1   67 1    
     3    1   68 1    
     4    1   69 1    
     5    2    3 2    
     6    2    4 am   BACKBONE|DICT|INTERRES
     7    4    5 1    
     8    4   70 1    
     9    5    6 1    
    10    5   65 1    
    11    5   71 1    
    12    6    7 1    
    13    6   72 1    
    14    6   73 1    
    15    7    8 1    
    16    8    9 1    
    17    8   74 1    
    18    8   75 1    
    19    9   10 ar   
    20    9   14 ar   
    21   10   11 ar   
    22   10   76 1    
    23   11   12 ar   
    24   11   48 1    
    25   12   13 ar   
    26   12   77 1    
    27   13   14 ar   
    28   13   15 1    
    29   14   78 1    
    30   15   16 1    
    31   15   79 1    
    32   15   80 1    
    33   16   17 1    
    34   17   18 1    
    35   17   81 1    
    36   17   82 1    
    37   18   19 1    
    38   18   22 1    
    39   18   83 1    
    40   19   20 am   BACKBONE|DICT|INTERRES
    41   19   21 2    
    42   20   84 1    
    43   20   85 1    
    44   22   23 am   BACKBONE|DICT|INTERRES
    45   22   86 1    
    46   23   24 2    
    47   23   25 1    
    48   25   26 1    
    49   25   27 1    
    50   25   87 1    
    51   26   88 1    
    52   26   89 1    
    53   26   90 1    
    54   27   28 am   BACKBONE|DICT|INTERRES
    55   27   91 1    
    56   28   29 2    
    57   28   30 1    
    58   30   31 1    
    59   30   32 1    
    60   30   92 1    
    61   31   93 1    
    62   31   94 1    
    63   31   95 1    
    64   32   33 am   BACKBONE|DICT|INTERRES
    65   32   96 1    
    66   33   34 2    
    67   33   35 1    
    68   35   36 1    
    69   35   37 1    
    70   35   97 1    
    71   36   98 1    
    72   36   99 1    
    73   36  100 1    
    74   37   38 am   BACKBONE|DICT|INTERRES
    75   37  101 1    
    76   38   39 2    
    77   38   40 1    
    78   40   41 1    
    79   40   42 1    
    80   40  102 1    
    81   41  103 1    
    82   41  104 1    
    83   41  105 1    
    84   42   43 am   BACKBONE|DICT|INTERRES
    85   42  106 1    
    86   43   44 2    
    87   43   45 1    
    88   45   46 1    
    89   45   49 1    
    90   45  107 1    
    91   46   47 1    
    92   46  108 1    
    93   46  109 1    
    94   47   48 1    
    95   48  110 1    
    96   48  111 1    
    97   49   50 am   BACKBONE|DICT|INTERRES
    98   49  112 1    
    99   50   51 2    
   100   50   52 1    
   101   52   53 1    
   102   52   54 1    
   103   52  113 1    
   104   53  114 1    
   105   53  115 1    
   106   53  116 1    
   107   54   55 am   BACKBONE|DICT|INTERRES
   108   54  117 1    
   109   55   56 2    
   110   55   57 1    
   111   57   58 1    
   112   57   59 1    
   113   57  118 1    
   114   58  119 1    
   115   58  120 1    
   116   58  121 1    
   117   59   60 am   BACKBONE|DICT|INTERRES
   118   59  122 1    
   119   60   61 2    
   120   60   62 1    
   121   62   63 1    
   122   62   64 1    
   123   62  123 1    
   124   63  124 1    
   125   63  125 1    
   126   63  126 1    
   127   64   65 am   BACKBONE|DICT|INTERRES
   128   64  127 1    
   129   65   66 2    
@<TRIPOS>SUBSTRUCTURE
     1 UNK         1 GROUP             0       ****    0 ROOT    
