@<TRIPOS>MOLECULE
3R134
127   129    1
SMALL
USER_CHARGES


@<TRIPOS>ATOM
      1 CA         36.9925  -44.8421  -49.5927 C.3       0 UNK        -0.1968 
      2 C          36.7571  -44.9590  -51.0917 C.2       0 UNK         0.4852 
      3 O          37.6222  -44.5694  -51.8781 O.2       0 UNK        -0.5359 
      4 N          35.5918  -45.4845  -51.4920 N.am      1 UNK        -0.4300 
      5 CA         35.2260  -45.7364  -52.8882 C.3       1 UNK         0.0863 
      6 C6         33.6926  -45.9237  -53.0356 C.3       11 UNK        -0.0953 
      7 S7         33.1082  -45.6161  -54.7370 S.3       11 UNK        -0.2369 
      8 C8         32.7836  -43.8239  -54.6962 C.3       11 UNK         0.0226 
      9 C9         31.3541  -43.5113  -54.2782 C.ar      11 UNK        -0.0699 
     10 C10        31.0221  -43.3678  -52.9284 C.ar      11 UNK        -0.0804 
     11 C11        29.7061  -43.0933  -52.5447 C.ar      11 UNK        -0.0871 
     12 C12        28.7233  -42.9231  -53.5244 C.ar      11 UNK        -0.1008 
     13 C13        29.0446  -43.0579  -54.8782 C.ar      11 UNK        -0.0735 
     14 C14        30.3607  -43.3530  -55.2485 C.ar      11 UNK        -0.0945 
     15 C15        27.9705  -42.8838  -55.9421 C.3       11 UNK         0.0169 
     16 S16        26.8503  -44.3173  -56.0448 S.3       11 UNK        -0.2669 
     17 C17        27.9853  -45.6570  -56.5460 C.3       11 UNK        -0.0850 
     18 CA         28.2638  -45.6753  -58.0703 C.3       10 UNK         0.0855 
     19 C          29.4124  -46.6649  -58.4233 C.2       10 UNK         0.5543 
     20 N          29.1971  -47.6912  -59.2391 N.am      10 UNK        -0.7343 
     21 O          30.5346  -46.4809  -57.9622 O.2       10 UNK        -0.5027 
     22 N          27.0330  -45.8755  -58.8500 N.am      10 UNK        -0.4495 
     23 C          26.8681  -45.4659  -60.1153 C.2       10 UNK         0.4903 
     24 O          27.6963  -44.7844  -60.7223 O.2       10 UNK        -0.4860 
     25 CA         25.5641  -45.8915  -60.8263 C.3       9 UNK         0.0227 
     26 CB         25.7035  -45.8988  -62.3640 C.3       9 UNK        -0.1964 
     27 N          25.0251  -47.1744  -60.3545 N.am      9 UNK        -0.4231 
     28 C          25.6548  -48.3582  -60.3442 C.2       9 UNK         0.5014 
     29 O          26.7984  -48.5460  -60.7657 O.2       9 UNK        -0.5270 
     30 CA         24.8937  -49.5230  -59.6932 C.3       8 UNK         0.0284 
     31 CB         24.7119  -50.6857  -60.6835 C.3       8 UNK        -0.1977 
     32 N          25.5832  -50.0050  -58.4939 N.am      8 UNK        -0.4342 
     33 C          25.8343  -49.2705  -57.4023 C.2       8 UNK         0.5039 
     34 O          25.5162  -48.0834  -57.2767 O.2       8 UNK        -0.5547 
     35 CA         26.5681  -49.9796  -56.2609 C.3       7 UNK         0.0281 
     36 CB         28.0941  -49.9004  -56.4438 C.3       7 UNK        -0.1963 
     37 N          26.1814  -49.3429  -55.0057 N.am      7 UNK        -0.4444 
     38 C          26.0312  -49.9703  -53.8363 C.2       7 UNK         0.5104 
     39 O          26.2889  -51.1626  -53.6601 O.2       7 UNK        -0.5100 
     40 CA         25.5460  -49.1047  -52.6627 C.3       6 UNK         0.0396 
     41 CB         25.1015  -49.9448  -51.4507 C.3       6 UNK        -0.1801 
     42 N          26.6347  -48.2231  -52.2533 N.am      6 UNK        -0.4747 
     43 C          26.7806  -46.9419  -52.6179 C.2       6 UNK         0.5012 
     44 O          25.9379  -46.3167  -53.2600 O.2       6 UNK        -0.5003 
     45 CA         28.0991  -46.2524  -52.2040 C.3       5 UNK         0.0782 
     46 C46        27.8881  -45.4281  -50.9075 C.3       11 UNK        -0.0868 
     47 S47        29.4064  -44.6379  -50.2718 S.3       11 UNK        -0.2515 
     48 C48        29.3525  -43.0002  -51.0686 C.3       11 UNK         0.0199 
     49 N          29.2073  -47.2130  -52.1007 N.am      5 UNK        -0.4607 
     50 C          29.7560  -47.8214  -53.1589 C.2       4 UNK         0.5031 
     51 O          29.4236  -47.6016  -54.3253 O.2       4 UNK        -0.5119 
     52 CA         30.8145  -48.8886  -52.8691 C.3       4 UNK         0.0263 
     53 CB         30.1566  -50.1902  -52.3705 C.3       4 UNK        -0.1967 
     54 N          31.5360  -49.1332  -54.1119 N.am      4 UNK        -0.4237 
     55 C          32.7413  -49.6943  -54.2356 C.2       3 UNK         0.4908 
     56 O          33.3874  -50.1358  -53.2845 O.2       3 UNK        -0.5102 
     57 CA         33.3479  -49.7577  -55.6471 C.3       3 UNK         0.0241 
     58 CB         32.3696  -49.3692  -56.7760 C.3       3 UNK        -0.1971 
     59 N          34.4884  -48.8485  -55.6725 N.am      3 UNK        -0.4139 
     60 C          35.7788  -49.2058  -55.6903 C.2       2 UNK         0.5016 
     61 O          36.1766  -50.3633  -55.8295 O.2       2 UNK        -0.5319 
     62 CA         36.8061  -48.0708  -55.5109 C.3       2 UNK         0.0286 
     63 CB         37.3160  -47.5833  -56.8768 C.3       2 UNK        -0.1963 
     64 N          36.2628  -46.9311  -54.7624 N.am      2 UNK        -0.4790 
     65 C          35.9978  -46.9498  -53.4484 C.2       1 UNK         0.5024 
     66 O          36.2922  -47.8896  -52.7057 O.2       1 UNK        -0.4888 
     67 H67        37.8708  -45.4194  -49.3052 H         1 UNK         0.0892 
     68 H68        37.1641  -43.8012  -49.3199 H         1 UNK         0.0892 
     69 H69        36.1430  -45.2077  -49.0161 H         1 UNK         0.0892 
     70 H70        34.9386  -45.8215  -50.7996 H         1 UNK         0.3107 
     71 H71        35.5226  -44.8523  -53.4574 H         1 UNK         0.0773 
     72 H72        33.3869  -46.9273  -52.7339 H         1 UNK         0.0680 
     73 H73        33.1625  -45.2480  -52.3658 H         1 UNK         0.0680 
     74 H74        32.9725  -43.4175  -55.6909 H         1 UNK         0.0650 
     75 H75        33.4919  -43.3285  -54.0305 H         1 UNK         0.0650 
     76 H76        31.7816  -43.4848  -52.1689 H         1 UNK         0.1397 
     77 H77        27.7026  -42.7090  -53.2372 H         1 UNK         0.1363 
     78 H78        30.6123  -43.4675  -56.2942 H         1 UNK         0.1355 
     79 H79        28.4193  -42.7053  -56.9202 H         1 UNK         0.0707 
     80 H80        27.3805  -41.9949  -55.7144 H         1 UNK         0.0707 
     81 H81        28.9126  -45.5695  -55.9790 H         1 UNK         0.1034 
     82 H82        27.5470  -46.6046  -56.2304 H         1 UNK         0.1034 
     83 H83        28.6567  -44.6903  -58.3279 H         1 UNK         0.0482 
     84 H84        28.2926  -47.8443  -59.6726 H         1 UNK         0.3460 
     85 H85        29.9640  -48.3043  -59.4608 H         1 UNK         0.3460 
     86 H86        26.3253  -46.4580  -58.4157 H         1 UNK         0.2989 
     87 H87        24.8214  -45.1360  -60.5662 H         1 UNK         0.0559 
     88 H88        25.9705  -44.9102  -62.7396 H         1 UNK         0.0848 
     89 H89        24.7689  -46.1837  -62.8468 H         1 UNK         0.0848 
     90 H90        26.4775  -46.5920  -62.6956 H         1 UNK         0.0848 
     91 H91        24.1058  -47.1283  -59.9358 H         1 UNK         0.3144 
     92 H92        23.9028  -49.1782  -59.3900 H         1 UNK         0.0727 
     93 H93        25.6696  -51.1029  -60.9983 H         1 UNK         0.0790 
     94 H94        24.1913  -50.3530  -61.5826 H         1 UNK         0.0790 
     95 H95        24.1207  -51.4914  -60.2478 H         1 UNK         0.0790 
     96 H96        25.9151  -50.9583  -58.5230 H         1 UNK         0.3215 
     97 H97        26.2577  -51.0270  -56.2508 H         1 UNK         0.0863 
     98 H98        28.6187  -50.3937  -55.6256 H         1 UNK         0.0808 
     99 H99        28.4409  -48.8681  -56.4847 H         1 UNK         0.0808 
    100 H100       28.4058  -50.3840  -57.3703 H         1 UNK         0.0808 
    101 H101       25.9207  -48.3670  -55.0917 H         1 UNK         0.3118 
    102 H102       24.6850  -48.5252  -53.0028 H         1 UNK         0.0546 
    103 H103       25.9178  -50.5468  -51.0493 H         1 UNK         0.0828 
    104 H104       24.2965  -50.6278  -51.7250 H         1 UNK         0.0828 
    105 H105       24.7277  -49.3108  -50.6467 H         1 UNK         0.0828 
    106 H106       27.3973  -48.6602  -51.7567 H         1 UNK         0.3005 
    107 H107       28.3467  -45.5626  -53.0128 H         1 UNK         0.1257 
    108 H108       27.1290  -44.6595  -51.0658 H         1 UNK         0.0775 
    109 H109       27.5026  -46.0685  -50.1117 H         1 UNK         0.0775 
    110 H110       28.3699  -42.5485  -50.9236 H         1 UNK         0.0840 
    111 H111       30.0661  -42.3423  -50.5706 H         1 UNK         0.0840 
    112 H112       29.5454  -47.4127  -51.1704 H         1 UNK         0.2987 
    113 H113       31.5074  -48.5043  -52.1179 H         1 UNK         0.0785 
    114 H114       29.6236  -50.0296  -51.4330 H         1 UNK         0.0798 
    115 H115       30.8983  -50.9675  -52.1865 H         1 UNK         0.0798 
    116 H116       29.4378  -50.5796  -53.0932 H         1 UNK         0.0798 
    117 H117       31.0743  -48.7363  -54.9230 H         1 UNK         0.3079 
    118 H118       33.6693  -50.7880  -55.8134 H         1 UNK         0.0794 
    119 H119       32.8397  -49.4833  -57.7529 H         1 UNK         0.0786 
    120 H120       32.0383  -48.3330  -56.6950 H         1 UNK         0.0786 
    121 H121       31.4842  -50.0067  -56.7730 H         1 UNK         0.0786 
    122 H122       34.2765  -47.8722  -55.5198 H         1 UNK         0.3032 
    123 H123       37.6518  -48.4802  -54.9530 H         1 UNK         0.1094 
    124 H124       36.5141  -47.1559  -57.4801 H         1 UNK         0.0794 
    125 H125       38.0928  -46.8268  -56.7637 H         1 UNK         0.0794 
    126 H126       37.7489  -48.4067  -57.4469 H         1 UNK         0.0794 
    127 H127       35.9961  -46.1186  -55.3015 H         1 UNK         0.3016 
@<TRIPOS>BOND
     1    1    2 1    
     2    1   67 1    
     3    1   68 1    
     4    1   69 1    
     5    2    3 2    
     6    2    4 am   BACKBONE|DICT|INTERRES
     7    4    5 1    
     8    4   70 1    
     9    5    6 1    
    10    5   65 1    
    11    5   71 1    
    12    6    7 1    
    13    6   72 1    
    14    6   73 1    
    15    7    8 1    
    16    8    9 1    
    17    8   74 1    
    18    8   75 1    
    19    9   10 ar   
    20    9   14 ar   
    21   10   11 ar   
    22   10   76 1    
    23   11   12 ar   
    24   11   48 1    
    25   12   13 ar   
    26   12   77 1    
    27   13   14 ar   
    28   13   15 1    
    29   14   78 1    
    30   15   16 1    
    31   15   79 1    
    32   15   80 1    
    33   16   17 1    
    34   17   18 1    
    35   17   81 1    
    36   17   82 1    
    37   18   19 1    
    38   18   22 1    
    39   18   83 1    
    40   19   20 am   BACKBONE|DICT|INTERRES
    41   19   21 2    
    42   20   84 1    
    43   20   85 1    
    44   22   23 am   BACKBONE|DICT|INTERRES
    45   22   86 1    
    46   23   24 2    
    47   23   25 1    
    48   25   26 1    
    49   25   27 1    
    50   25   87 1    
    51   26   88 1    
    52   26   89 1    
    53   26   90 1    
    54   27   28 am   BACKBONE|DICT|INTERRES
    55   27   91 1    
    56   28   29 2    
    57   28   30 1    
    58   30   31 1    
    59   30   32 1    
    60   30   92 1    
    61   31   93 1    
    62   31   94 1    
    63   31   95 1    
    64   32   33 am   BACKBONE|DICT|INTERRES
    65   32   96 1    
    66   33   34 2    
    67   33   35 1    
    68   35   36 1    
    69   35   37 1    
    70   35   97 1    
    71   36   98 1    
    72   36   99 1    
    73   36  100 1    
    74   37   38 am   BACKBONE|DICT|INTERRES
    75   37  101 1    
    76   38   39 2    
    77   38   40 1    
    78   40   41 1    
    79   40   42 1    
    80   40  102 1    
    81   41  103 1    
    82   41  104 1    
    83   41  105 1    
    84   42   43 am   BACKBONE|DICT|INTERRES
    85   42  106 1    
    86   43   44 2    
    87   43   45 1    
    88   45   46 1    
    89   45   49 1    
    90   45  107 1    
    91   46   47 1    
    92   46  108 1    
    93   46  109 1    
    94   47   48 1    
    95   48  110 1    
    96   48  111 1    
    97   49   50 am   BACKBONE|DICT|INTERRES
    98   49  112 1    
    99   50   51 2    
   100   50   52 1    
   101   52   53 1    
   102   52   54 1    
   103   52  113 1    
   104   53  114 1    
   105   53  115 1    
   106   53  116 1    
   107   54   55 am   BACKBONE|DICT|INTERRES
   108   54  117 1    
   109   55   56 2    
   110   55   57 1    
   111   57   58 1    
   112   57   59 1    
   113   57  118 1    
   114   58  119 1    
   115   58  120 1    
   116   58  121 1    
   117   59   60 am   BACKBONE|DICT|INTERRES
   118   59  122 1    
   119   60   61 2    
   120   60   62 1    
   121   62   63 1    
   122   62   64 1    
   123   62  123 1    
   124   63  124 1    
   125   63  125 1    
   126   63  126 1    
   127   64   65 am   BACKBONE|DICT|INTERRES
   128   64  127 1    
   129   65   66 2    
@<TRIPOS>SUBSTRUCTURE
     1 UNK         1 GROUP             0       ****    0 ROOT    
