@<TRIPOS>MOLECULE
3R134
127   129    1
SMALL
USER_CHARGES


@<TRIPOS>ATOM
      1 CA         32.6549  -45.9943  -50.1979 C.3       0 UNK        -0.1968 
      2 C          33.1921  -46.2482  -51.5978 C.2       0 UNK         0.4852 
      3 O          32.5083  -46.8883  -52.3994 O.2       0 UNK        -0.5359 
      4 N          34.4105  -45.7597  -51.8840 N.am      1 UNK        -0.4300 
      5 CA         35.1071  -45.8374  -53.1780 C.3       1 UNK         0.0863 
      6 C6         34.4399  -44.9523  -54.2660 C.3       11 UNK        -0.0953 
      7 S7         34.6851  -43.1663  -53.9798 S.3       11 UNK        -0.2369 
      8 C8         33.1397  -42.6569  -53.1465 C.3       11 UNK         0.0226 
      9 C9         31.8385  -42.9158  -53.9090 C.ar      11 UNK        -0.0699 
     10 C10        30.6458  -42.9667  -53.1794 C.ar      11 UNK        -0.0804 
     11 C11        29.4308  -43.2555  -53.8079 C.ar      11 UNK        -0.0871 
     12 C12        29.4104  -43.4595  -55.1893 C.ar      11 UNK        -0.1008 
     13 C13        30.5855  -43.3890  -55.9390 C.ar      11 UNK        -0.0735 
     14 C14        31.7946  -43.1055  -55.2981 C.ar      11 UNK        -0.0945 
     15 C15        30.5333  -43.6417  -57.4370 C.3       11 UNK         0.0169 
     16 S16        29.7151  -42.2614  -58.2948 S.3       11 UNK        -0.2669 
     17 C17        28.9710  -43.1002  -59.7345 C.3       11 UNK        -0.0850 
     18 CA         27.4637  -43.4097  -59.5159 C.3       10 UNK         0.0855 
     19 C          26.7527  -43.7666  -60.8563 C.2       10 UNK         0.5543 
     20 N          26.0748  -44.9012  -60.9862 N.am      10 UNK        -0.7343 
     21 O          26.8089  -42.9858  -61.8032 O.2       10 UNK        -0.5027 
     22 N          27.2678  -44.4035  -58.4473 N.am      10 UNK        -0.4495 
     23 C          26.1791  -44.5060  -57.6743 C.2       10 UNK         0.4903 
     24 O          25.2445  -43.7040  -57.6977 O.2       10 UNK        -0.4860 
     25 CA         26.1330  -45.7226  -56.7236 C.3       9 UNK         0.0227 
     26 CB         24.7039  -46.0568  -56.2482 C.3       9 UNK        -0.1964 
     27 N          26.7864  -46.9185  -57.2764 N.am      9 UNK        -0.4231 
     28 C          26.4846  -47.5486  -58.4227 C.2       9 UNK         0.5014 
     29 O          25.5805  -47.1979  -59.1815 O.2       9 UNK        -0.5270 
     30 CA         27.3607  -48.7432  -58.8172 C.3       8 UNK         0.0284 
     31 CB         28.6588  -48.2547  -59.4847 C.3       8 UNK        -0.1977 
     32 N          27.6919  -49.5889  -57.6666 N.am      8 UNK        -0.4342 
     33 C          27.3686  -50.8840  -57.5607 C.2       8 UNK         0.5039 
     34 O          26.7115  -51.4993  -58.4022 O.2       8 UNK        -0.5547 
     35 CA         27.8822  -51.6457  -56.3281 C.3       7 UNK         0.0281 
     36 CB         29.2944  -52.1958  -56.5862 C.3       7 UNK        -0.1963 
     37 N          27.8841  -50.8655  -55.0891 N.am      7 UNK        -0.4444 
     38 C          26.7811  -50.5494  -54.3956 C.2       7 UNK         0.5104 
     39 O          25.6355  -50.7743  -54.7865 O.2       7 UNK        -0.5100 
     40 CA         26.9914  -49.9025  -53.0179 C.3       6 UNK         0.0396 
     41 CB         27.4364  -50.9543  -51.9880 C.3       6 UNK        -0.1801 
     42 N          27.9852  -48.8330  -53.0798 N.am      6 UNK        -0.4747 
     43 C          27.6919  -47.5394  -53.2737 C.2       6 UNK         0.5012 
     44 O          26.5432  -47.1037  -53.3502 O.2       6 UNK        -0.5003 
     45 CA         28.8789  -46.5681  -53.4477 C.3       5 UNK         0.0782 
     46 C46        29.2691  -45.8863  -52.1128 C.3       11 UNK        -0.0868 
     47 S47        28.2098  -44.4967  -51.5772 S.3       11 UNK        -0.2515 
     48 C48        28.1331  -43.3621  -53.0118 C.3       11 UNK         0.0199 
     49 N          30.0527  -47.1921  -54.0663 N.am      5 UNK        -0.4607 
     50 C          30.0792  -47.7394  -55.2883 C.2       4 UNK         0.5031 
     51 O          29.1238  -47.7222  -56.0627 O.2       4 UNK        -0.5119 
     52 CA         31.3524  -48.4964  -55.6962 C.3       4 UNK         0.0263 
     53 CB         32.2756  -47.5764  -56.5061 C.3       4 UNK        -0.1967 
     54 N          32.0688  -49.0772  -54.5522 N.am      4 UNK        -0.4237 
     55 C          31.5435  -50.0013  -53.7293 C.2       3 UNK         0.4908 
     56 O          30.4252  -50.4896  -53.9049 O.2       3 UNK        -0.5102 
     57 CA         32.3225  -50.3955  -52.4603 C.3       3 UNK         0.0241 
     58 CB         32.2148  -51.9040  -52.1500 C.3       3 UNK        -0.1971 
     59 N          33.7109  -49.9249  -52.4204 N.am      3 UNK        -0.4139 
     60 C          34.7561  -50.3488  -53.1456 C.2       2 UNK         0.5016 
     61 O          34.7063  -51.2644  -53.9683 O.2       2 UNK        -0.5319 
     62 CA         36.0756  -49.5816  -52.9103 C.3       2 UNK         0.0286 
     63 CB         37.1365  -49.8612  -53.9972 C.3       2 UNK        -0.1963 
     64 N          35.8683  -48.1325  -52.7425 N.am      2 UNK        -0.4790 
     65 C          35.2973  -47.3027  -53.6315 C.2       1 UNK         0.5024 
     66 O          34.8907  -47.6701  -54.7337 O.2       1 UNK        -0.4888 
     67 H67        32.2983  -46.9253  -49.7584 H         1 UNK         0.0892 
     68 H68        31.8205  -45.2950  -50.2384 H         1 UNK         0.0892 
     69 H69        33.4157  -45.5782  -49.5380 H         1 UNK         0.0892 
     70 H70        34.9122  -45.2578  -51.1645 H         1 UNK         0.3107 
     71 H71        36.1159  -45.4553  -53.0134 H         1 UNK         0.0773 
     72 H72        33.3780  -45.1818  -54.3498 H         1 UNK         0.0680 
     73 H73        34.8691  -45.1561  -55.2487 H         1 UNK         0.0680 
     74 H74        33.1003  -43.1587  -52.1789 H         1 UNK         0.0650 
     75 H75        33.2047  -41.5891  -52.9350 H         1 UNK         0.0650 
     76 H76        30.6644  -42.8118  -52.1091 H         1 UNK         0.1397 
     77 H77        28.4776  -43.6741  -55.6913 H         1 UNK         0.1363 
     78 H78        32.7003  -43.0519  -55.8850 H         1 UNK         0.1355 
     79 H79        29.9966  -44.5741  -57.6150 H         1 UNK         0.0707 
     80 H80        31.5344  -43.7787  -57.8487 H         1 UNK         0.0707 
     81 H81        29.5276  -44.0067  -59.9789 H         1 UNK         0.1034 
     82 H82        29.1055  -42.4315  -60.5870 H         1 UNK         0.1034 
     83 H83        26.9917  -42.4804  -59.1909 H         1 UNK         0.0482 
     84 H84        25.9787  -45.5575  -60.2190 H         1 UNK         0.3460 
     85 H85        25.6225  -45.0985  -61.8644 H         1 UNK         0.3460 
     86 H86        27.9699  -45.1229  -58.3771 H         1 UNK         0.2989 
     87 H87        26.7119  -45.4416  -55.8435 H         1 UNK         0.0559 
     88 H88        24.7040  -46.9062  -55.5649 H         1 UNK         0.0848 
     89 H89        24.0448  -46.2967  -57.0831 H         1 UNK         0.0848 
     90 H90        24.2613  -45.2151  -55.7142 H         1 UNK         0.0848 
     91 H91        27.6020  -47.2464  -56.7588 H         1 UNK         0.3144 
     92 H92        26.8000  -49.3122  -59.5616 H         1 UNK         0.0727 
     93 H93        29.2524  -49.0934  -59.8487 H         1 UNK         0.0790 
     94 H94        29.2819  -47.6802  -58.7985 H         1 UNK         0.0790 
     95 H95        28.4415  -47.6166  -60.3426 H         1 UNK         0.0790 
     96 H96        28.2213  -49.1488  -56.9194 H         1 UNK         0.3215 
     97 H97        27.2181  -52.5001  -56.1782 H         1 UNK         0.0863 
     98 H98        29.6420  -52.8047  -55.7513 H         1 UNK         0.0808 
     99 H99        30.0191  -51.3968  -56.7400 H         1 UNK         0.0808 
    100 H100       29.3111  -52.8264  -57.4762 H         1 UNK         0.0808 
    101 H101       28.7944  -50.6772  -54.6719 H         1 UNK         0.3118 
    102 H102       26.0321  -49.5003  -52.6849 H         1 UNK         0.0546 
    103 H103       26.7081  -51.7634  -51.9186 H         1 UNK         0.0828 
    104 H104       27.5298  -50.5179  -50.9935 H         1 UNK         0.0828 
    105 H105       28.3965  -51.4021  -52.2474 H         1 UNK         0.0828 
    106 H106       28.9567  -49.1183  -53.0900 H         1 UNK         0.3005 
    107 H107       28.5378  -45.8150  -54.1546 H         1 UNK         0.1257 
    108 H108       30.2767  -45.4806  -52.1908 H         1 UNK         0.0775 
    109 H109       29.3238  -46.6171  -51.3034 H         1 UNK         0.0775 
    110 H110       27.3138  -43.6879  -53.6548 H         1 UNK         0.0840 
    111 H111       27.8572  -42.3687  -52.6560 H         1 UNK         0.0840 
    112 H112       30.9019  -47.2134  -53.5064 H         1 UNK         0.2987 
    113 H113       31.0486  -49.3192  -56.3446 H         1 UNK         0.0785 
    114 H114       32.6017  -46.7179  -55.9201 H         1 UNK         0.0798 
    115 H115       31.7650  -47.1907  -57.3896 H         1 UNK         0.0798 
    116 H116       33.1633  -48.1069  -56.8506 H         1 UNK         0.0798 
    117 H117       32.9786  -48.6847  -54.3386 H         1 UNK         0.3079 
    118 H118       31.8214  -49.8669  -51.6480 H         1 UNK         0.0794 
    119 H119       32.6092  -52.5155  -52.9618 H         1 UNK         0.0786 
    120 H120       31.1753  -52.1995  -52.0023 H         1 UNK         0.0786 
    121 H121       32.7552  -52.1627  -51.2395 H         1 UNK         0.0786 
    122 H122       33.8696  -49.1303  -51.8165 H         1 UNK         0.3032 
    123 H123       36.4722  -49.9530  -51.9636 H         1 UNK         0.1094 
    124 H124       36.7875  -49.5741  -54.9896 H         1 UNK         0.0794 
    125 H125       38.0617  -49.3210  -53.7973 H         1 UNK         0.0794 
    126 H126       37.3848  -50.9226  -54.0364 H         1 UNK         0.0794 
    127 H127       36.1562  -47.7462  -51.8531 H         1 UNK         0.3016 
@<TRIPOS>BOND
     1    1    2 1    
     2    1   67 1    
     3    1   68 1    
     4    1   69 1    
     5    2    3 2    
     6    2    4 am   BACKBONE|DICT|INTERRES
     7    4    5 1    
     8    4   70 1    
     9    5    6 1    
    10    5   65 1    
    11    5   71 1    
    12    6    7 1    
    13    6   72 1    
    14    6   73 1    
    15    7    8 1    
    16    8    9 1    
    17    8   74 1    
    18    8   75 1    
    19    9   10 ar   
    20    9   14 ar   
    21   10   11 ar   
    22   10   76 1    
    23   11   12 ar   
    24   11   48 1    
    25   12   13 ar   
    26   12   77 1    
    27   13   14 ar   
    28   13   15 1    
    29   14   78 1    
    30   15   16 1    
    31   15   79 1    
    32   15   80 1    
    33   16   17 1    
    34   17   18 1    
    35   17   81 1    
    36   17   82 1    
    37   18   19 1    
    38   18   22 1    
    39   18   83 1    
    40   19   20 am   BACKBONE|DICT|INTERRES
    41   19   21 2    
    42   20   84 1    
    43   20   85 1    
    44   22   23 am   BACKBONE|DICT|INTERRES
    45   22   86 1    
    46   23   24 2    
    47   23   25 1    
    48   25   26 1    
    49   25   27 1    
    50   25   87 1    
    51   26   88 1    
    52   26   89 1    
    53   26   90 1    
    54   27   28 am   BACKBONE|DICT|INTERRES
    55   27   91 1    
    56   28   29 2    
    57   28   30 1    
    58   30   31 1    
    59   30   32 1    
    60   30   92 1    
    61   31   93 1    
    62   31   94 1    
    63   31   95 1    
    64   32   33 am   BACKBONE|DICT|INTERRES
    65   32   96 1    
    66   33   34 2    
    67   33   35 1    
    68   35   36 1    
    69   35   37 1    
    70   35   97 1    
    71   36   98 1    
    72   36   99 1    
    73   36  100 1    
    74   37   38 am   BACKBONE|DICT|INTERRES
    75   37  101 1    
    76   38   39 2    
    77   38   40 1    
    78   40   41 1    
    79   40   42 1    
    80   40  102 1    
    81   41  103 1    
    82   41  104 1    
    83   41  105 1    
    84   42   43 am   BACKBONE|DICT|INTERRES
    85   42  106 1    
    86   43   44 2    
    87   43   45 1    
    88   45   46 1    
    89   45   49 1    
    90   45  107 1    
    91   46   47 1    
    92   46  108 1    
    93   46  109 1    
    94   47   48 1    
    95   48  110 1    
    96   48  111 1    
    97   49   50 am   BACKBONE|DICT|INTERRES
    98   49  112 1    
    99   50   51 2    
   100   50   52 1    
   101   52   53 1    
   102   52   54 1    
   103   52  113 1    
   104   53  114 1    
   105   53  115 1    
   106   53  116 1    
   107   54   55 am   BACKBONE|DICT|INTERRES
   108   54  117 1    
   109   55   56 2    
   110   55   57 1    
   111   57   58 1    
   112   57   59 1    
   113   57  118 1    
   114   58  119 1    
   115   58  120 1    
   116   58  121 1    
   117   59   60 am   BACKBONE|DICT|INTERRES
   118   59  122 1    
   119   60   61 2    
   120   60   62 1    
   121   62   63 1    
   122   62   64 1    
   123   62  123 1    
   124   63  124 1    
   125   63  125 1    
   126   63  126 1    
   127   64   65 am   BACKBONE|DICT|INTERRES
   128   64  127 1    
   129   65   66 2    
@<TRIPOS>SUBSTRUCTURE
     1 UNK         1 GROUP             0       ****    0 ROOT    
