@<TRIPOS>MOLECULE
3R134
127   129    1
SMALL
USER_CHARGES


@<TRIPOS>ATOM
      1 CA         30.5417  -47.4910  -49.0941 C.3       0 UNK        -0.1968 
      2 C          31.8776  -47.3418  -49.8063 C.2       0 UNK         0.4852 
      3 O          32.7697  -48.1631  -49.5935 O.2       0 UNK        -0.5359 
      4 N          32.0040  -46.3047  -50.6474 N.am      1 UNK        -0.4300 
      5 CA         33.1539  -45.9206  -51.4784 C.3       1 UNK         0.0863 
      6 C6         32.7822  -44.8045  -52.4882 C.3       11 UNK        -0.0953 
      7 S7         31.8332  -43.4104  -51.7869 S.3       11 UNK        -0.2369 
      8 C8         31.9032  -42.1867  -53.1411 C.3       11 UNK         0.0226 
      9 C9         31.6130  -42.8059  -54.5029 C.ar      11 UNK        -0.0699 
     10 C10        32.6747  -43.1839  -55.3299 C.ar      11 UNK        -0.0804 
     11 C11        32.4388  -43.8186  -56.5509 C.ar      11 UNK        -0.0871 
     12 C12        31.1203  -44.0397  -56.9601 C.ar      11 UNK        -0.1008 
     13 C13        30.0469  -43.6564  -56.1496 C.ar      11 UNK        -0.0735 
     14 C14        30.2984  -43.0368  -54.9205 C.ar      11 UNK        -0.0945 
     15 C15        28.6234  -43.9674  -56.5861 C.3       11 UNK         0.0169 
     16 S16        28.1522  -43.0404  -58.0831 S.3       11 UNK        -0.2669 
     17 C17        26.7621  -42.0162  -57.4810 C.3       11 UNK        -0.0850 
     18 CA         25.3675  -42.6393  -57.7618 C.3       10 UNK         0.0855 
     19 C          24.9678  -42.5599  -59.2667 C.2       10 UNK         0.5543 
     20 N          24.6856  -43.6640  -59.9499 N.am      10 UNK        -0.7343 
     21 O          24.8962  -41.4659  -59.8215 O.2       10 UNK        -0.5027 
     22 N          25.2551  -43.9768  -57.1644 N.am      10 UNK        -0.4495 
     23 C          24.1133  -44.5827  -56.8230 C.2       10 UNK         0.4903 
     24 O          23.0089  -44.0389  -56.8716 O.2       10 UNK        -0.4860 
     25 CA         24.2375  -46.0442  -56.3471 C.3       9 UNK         0.0227 
     26 CB         22.9156  -46.8284  -56.4858 C.3       9 UNK        -0.1964 
     27 N          25.3425  -46.7853  -56.9745 N.am      9 UNK        -0.4231 
     28 C          25.5189  -47.0308  -58.2853 C.2       9 UNK         0.5014 
     29 O          24.7922  -46.5667  -59.1653 O.2       9 UNK        -0.5270 
     30 CA         26.7074  -47.9223  -58.7061 C.3       8 UNK         0.0284 
     31 CB         27.7698  -47.0874  -59.4405 C.3       8 UNK        -0.1977 
     32 N          27.3364  -48.6392  -57.5914 N.am      8 UNK        -0.4342 
     33 C          26.7659  -49.6535  -56.9197 C.2       8 UNK         0.5039 
     34 O          25.7096  -50.1824  -57.2678 O.2       8 UNK        -0.5547 
     35 CA         27.4430  -50.1421  -55.6201 C.3       7 UNK         0.0281 
     36 CB         28.1150  -51.5067  -55.8401 C.3       7 UNK        -0.1963 
     37 N          28.4164  -49.2085  -55.0421 N.am      7 UNK        -0.4444 
     38 C          28.1607  -47.9461  -54.6694 C.2       7 UNK         0.5104 
     39 O          27.0414  -47.4344  -54.7120 O.2       7 UNK        -0.5100 
     40 CA         29.3609  -47.0796  -54.2523 C.3       6 UNK         0.0396 
     41 CB         29.5046  -47.0632  -52.7279 C.3       6 UNK        -0.1801 
     42 N          30.6359  -47.4586  -54.8769 N.am      6 UNK        -0.4747 
     43 C          30.8558  -47.4968  -56.2016 C.2       6 UNK         0.5012 
     44 O          29.9975  -47.2288  -57.0429 O.2       6 UNK        -0.5003 
     45 CA         32.2277  -48.0182  -56.6618 C.3       5 UNK         0.0782 
     46 C46        33.3620  -46.9679  -56.5274 C.3       11 UNK        -0.0868 
     47 S47        33.4935  -45.9585  -58.0450 S.3       11 UNK        -0.2515 
     48 C48        33.6202  -44.2517  -57.4126 C.3       11 UNK         0.0199 
     49 N          32.5290  -49.2920  -55.9989 N.am      5 UNK        -0.4607 
     50 C          31.9896  -50.4558  -56.3939 C.2       4 UNK         0.5031 
     51 O          31.2560  -50.5626  -57.3764 O.2       4 UNK        -0.5119 
     52 CA         32.3098  -51.7235  -55.5878 C.3       4 UNK         0.0263 
     53 CB         33.4636  -52.4967  -56.2459 C.3       4 UNK        -0.1967 
     54 N          32.6366  -51.4892  -54.1835 N.am      4 UNK        -0.4237 
     55 C          31.7997  -51.0561  -53.2342 C.2       3 UNK         0.4908 
     56 O          30.6431  -50.6947  -53.4533 O.2       3 UNK        -0.5102 
     57 CA         32.3540  -51.0295  -51.7954 C.3       3 UNK         0.0241 
     58 CB         32.6619  -52.4480  -51.2769 C.3       3 UNK        -0.1971 
     59 N          33.5033  -50.1317  -51.6265 N.am      3 UNK        -0.4139 
     60 C          34.6914  -50.1487  -52.2528 C.2       2 UNK         0.5016 
     61 O          35.0853  -51.0919  -52.9424 O.2       2 UNK        -0.5319 
     62 CA         35.5705  -48.8823  -52.1373 C.3       2 UNK         0.0286 
     63 CB         36.3129  -48.5832  -53.4575 C.3       2 UNK        -0.1963 
     64 N          34.8523  -47.6794  -51.6842 N.am      2 UNK        -0.4790 
     65 C          33.7641  -47.1192  -52.2376 C.2       1 UNK         0.5024 
     66 O          33.2079  -47.5461  -53.2545 O.2       1 UNK        -0.4888 
     67 H67        30.6879  -47.4646  -48.0146 H         1 UNK         0.0892 
     68 H68        30.0849  -48.4457  -49.3532 H         1 UNK         0.0892 
     69 H69        29.8437  -46.6978  -49.3615 H         1 UNK         0.0892 
     70 H70        31.2281  -45.6635  -50.7287 H         1 UNK         0.3107 
     71 H71        33.9095  -45.5192  -50.8006 H         1 UNK         0.0773 
     72 H72        32.1800  -45.2106  -53.3036 H         1 UNK         0.0680 
     73 H73        33.6917  -44.4090  -52.9433 H         1 UNK         0.0680 
     74 H74        31.1867  -41.3899  -52.9369 H         1 UNK         0.0650 
     75 H75        32.8883  -41.7175  -53.1409 H         1 UNK         0.0650 
     76 H76        33.6910  -43.0074  -55.0052 H         1 UNK         0.1397 
     77 H77        30.9243  -44.5328  -57.9027 H         1 UNK         0.1363 
     78 H78        29.4763  -42.7562  -54.2766 H         1 UNK         0.1355 
     79 H79        27.9218  -43.7771  -55.7730 H         1 UNK         0.0707 
     80 H80        28.5450  -45.0331  -56.7994 H         1 UNK         0.0707 
     81 H81        26.8389  -41.0295  -57.9418 H         1 UNK         0.1034 
     82 H82        26.8780  -41.8342  -56.4117 H         1 UNK         0.1034 
     83 H83        24.6419  -42.0045  -57.2494 H         1 UNK         0.0482 
     84 H84        24.7280  -44.5794  -59.5154 H         1 UNK         0.3460 
     85 H85        24.4237  -43.5856  -60.9193 H         1 UNK         0.3460 
     86 H86        26.1095  -44.5110  -57.1305 H         1 UNK         0.2989 
     87 H87        24.4786  -45.9934  -55.2844 H         1 UNK         0.0559 
     88 H88        23.0221  -47.8517  -56.1258 H         1 UNK         0.0848 
     89 H89        22.5784  -46.8710  -57.5221 H         1 UNK         0.0848 
     90 H90        22.1191  -46.3633  -55.9036 H         1 UNK         0.0848 
     91 H91        26.0156  -47.1730  -56.3172 H         1 UNK         0.3144 
     92 H92        26.3192  -48.6650  -59.4061 H         1 UNK         0.0727 
     93 H93        28.6051  -47.7057  -59.7697 H         1 UNK         0.0790 
     94 H94        28.1699  -46.2938  -58.8096 H         1 UNK         0.0790 
     95 H95        27.3488  -46.6123  -60.3277 H         1 UNK         0.0790 
     96 H96        28.2244  -48.2701  -57.2634 H         1 UNK         0.3215 
     97 H97        26.6499  -50.2706  -54.8807 H         1 UNK         0.0863 
     98 H98        28.5524  -51.8909  -54.9183 H         1 UNK         0.0808 
     99 H99        28.9030  -51.4504  -56.5904 H         1 UNK         0.0808 
    100 H100       27.3912  -52.2457  -56.1864 H         1 UNK         0.0808 
    101 H101       29.3579  -49.5572  -54.9064 H         1 UNK         0.3118 
    102 H102       29.1357  -46.0613  -54.5722 H         1 UNK         0.0546 
    103 H103       28.5365  -46.9598  -52.2352 H         1 UNK         0.0828 
    104 H104       30.1023  -46.2083  -52.4240 H         1 UNK         0.0828 
    105 H105       29.9721  -47.9740  -52.3516 H         1 UNK         0.0828 
    106 H106       31.4054  -47.6880  -54.2560 H         1 UNK         0.3005 
    107 H107       32.1211  -48.2412  -57.7267 H         1 UNK         0.1257 
    108 H108       34.3243  -47.4645  -56.3953 H         1 UNK         0.0775 
    109 H109       33.2327  -46.3347  -55.6479 H         1 UNK         0.0775 
    110 H110       34.5565  -44.1625  -56.8594 H         1 UNK         0.0840 
    111 H111       33.6996  -43.5704  -58.2606 H         1 UNK         0.0840 
    112 H112       33.0968  -49.2580  -55.1638 H         1 UNK         0.2987 
    113 H113       31.4182  -52.3538  -55.6144 H         1 UNK         0.0785 
    114 H114       34.3956  -51.9305  -56.2170 H         1 UNK         0.0798 
    115 H115       33.2442  -52.7129  -57.2926 H         1 UNK         0.0798 
    116 H116       33.6357  -53.4516  -55.7489 H         1 UNK         0.0798 
    117 H117       33.5975  -51.6637  -53.8953 H         1 UNK         0.3079 
    118 H118       31.5639  -50.6162  -51.1662 H         1 UNK         0.0794 
    119 H119       33.4666  -52.9280  -51.8342 H         1 UNK         0.0786 
    120 H120       31.7838  -53.0901  -51.3577 H         1 UNK         0.0786 
    121 H121       32.9519  -52.4275  -50.2264 H         1 UNK         0.0786 
    122 H122       33.3147  -49.3203  -51.0418 H         1 UNK         0.3032 
    123 H123       36.3178  -49.1062  -51.3743 H         1 UNK         0.1094 
    124 H124       35.6196  -48.4146  -54.2820 H         1 UNK         0.0794 
    125 H125       36.9452  -47.7002  -53.3659 H         1 UNK         0.0794 
    126 H126       36.9610  -49.4129  -53.7427 H         1 UNK         0.0794 
    127 H127       35.1819  -47.2900  -50.8108 H         1 UNK         0.3016 
@<TRIPOS>BOND
     1    1    2 1    
     2    1   67 1    
     3    1   68 1    
     4    1   69 1    
     5    2    3 2    
     6    2    4 am   BACKBONE|DICT|INTERRES
     7    4    5 1    
     8    4   70 1    
     9    5    6 1    
    10    5   65 1    
    11    5   71 1    
    12    6    7 1    
    13    6   72 1    
    14    6   73 1    
    15    7    8 1    
    16    8    9 1    
    17    8   74 1    
    18    8   75 1    
    19    9   10 ar   
    20    9   14 ar   
    21   10   11 ar   
    22   10   76 1    
    23   11   12 ar   
    24   11   48 1    
    25   12   13 ar   
    26   12   77 1    
    27   13   14 ar   
    28   13   15 1    
    29   14   78 1    
    30   15   16 1    
    31   15   79 1    
    32   15   80 1    
    33   16   17 1    
    34   17   18 1    
    35   17   81 1    
    36   17   82 1    
    37   18   19 1    
    38   18   22 1    
    39   18   83 1    
    40   19   20 am   BACKBONE|DICT|INTERRES
    41   19   21 2    
    42   20   84 1    
    43   20   85 1    
    44   22   23 am   BACKBONE|DICT|INTERRES
    45   22   86 1    
    46   23   24 2    
    47   23   25 1    
    48   25   26 1    
    49   25   27 1    
    50   25   87 1    
    51   26   88 1    
    52   26   89 1    
    53   26   90 1    
    54   27   28 am   BACKBONE|DICT|INTERRES
    55   27   91 1    
    56   28   29 2    
    57   28   30 1    
    58   30   31 1    
    59   30   32 1    
    60   30   92 1    
    61   31   93 1    
    62   31   94 1    
    63   31   95 1    
    64   32   33 am   BACKBONE|DICT|INTERRES
    65   32   96 1    
    66   33   34 2    
    67   33   35 1    
    68   35   36 1    
    69   35   37 1    
    70   35   97 1    
    71   36   98 1    
    72   36   99 1    
    73   36  100 1    
    74   37   38 am   BACKBONE|DICT|INTERRES
    75   37  101 1    
    76   38   39 2    
    77   38   40 1    
    78   40   41 1    
    79   40   42 1    
    80   40  102 1    
    81   41  103 1    
    82   41  104 1    
    83   41  105 1    
    84   42   43 am   BACKBONE|DICT|INTERRES
    85   42  106 1    
    86   43   44 2    
    87   43   45 1    
    88   45   46 1    
    89   45   49 1    
    90   45  107 1    
    91   46   47 1    
    92   46  108 1    
    93   46  109 1    
    94   47   48 1    
    95   48  110 1    
    96   48  111 1    
    97   49   50 am   BACKBONE|DICT|INTERRES
    98   49  112 1    
    99   50   51 2    
   100   50   52 1    
   101   52   53 1    
   102   52   54 1    
   103   52  113 1    
   104   53  114 1    
   105   53  115 1    
   106   53  116 1    
   107   54   55 am   BACKBONE|DICT|INTERRES
   108   54  117 1    
   109   55   56 2    
   110   55   57 1    
   111   57   58 1    
   112   57   59 1    
   113   57  118 1    
   114   58  119 1    
   115   58  120 1    
   116   58  121 1    
   117   59   60 am   BACKBONE|DICT|INTERRES
   118   59  122 1    
   119   60   61 2    
   120   60   62 1    
   121   62   63 1    
   122   62   64 1    
   123   62  123 1    
   124   63  124 1    
   125   63  125 1    
   126   63  126 1    
   127   64   65 am   BACKBONE|DICT|INTERRES
   128   64  127 1    
   129   65   66 2    
@<TRIPOS>SUBSTRUCTURE
     1 UNK         1 GROUP             0       ****    0 ROOT    
