@<TRIPOS>MOLECULE
3R134
127   129    1
SMALL
USER_CHARGES


@<TRIPOS>ATOM
      1 CA         29.1804  -44.7652  -53.4728 C.3       0 UNK        -0.1968 
      2 C          29.9514  -45.1166  -52.2148 C.2       0 UNK         0.4852 
      3 O          29.3767  -45.6825  -51.2844 O.2       0 UNK        -0.5359 
      4 N          31.2363  -44.7440  -52.1638 N.am      1 UNK        -0.4300 
      5 CA         32.0643  -44.8389  -50.9602 C.3       1 UNK         0.0863 
      6 C6         33.2518  -43.8456  -50.9899 C.3       11 UNK        -0.0953 
      7 S7         34.4281  -44.0956  -52.3661 S.3       11 UNK        -0.2369 
      8 C8         34.3114  -42.5297  -53.2935 C.3       11 UNK         0.0226 
      9 C9         33.4049  -42.6452  -54.5112 C.ar      11 UNK        -0.0699 
     10 C10        33.7897  -43.4627  -55.5781 C.ar      11 UNK        -0.0804 
     11 C11        32.9944  -43.5590  -56.7221 C.ar      11 UNK        -0.0871 
     12 C12        31.8328  -42.7907  -56.8163 C.ar      11 UNK        -0.1008 
     13 C13        31.4231  -41.9824  -55.7534 C.ar      11 UNK        -0.0735 
     14 C14        32.2113  -41.9176  -54.5970 C.ar      11 UNK        -0.0945 
     15 C15        30.1421  -41.1654  -55.8745 C.3       11 UNK         0.0169 
     16 S16        28.6437  -42.1742  -55.6194 S.3       11 UNK        -0.2669 
     17 C17        28.5084  -43.0946  -57.1909 C.3       11 UNK        -0.0850 
     18 CA         27.0566  -43.5772  -57.4641 C.3       10 UNK         0.0855 
     19 C          26.7728  -43.7701  -58.9866 C.2       10 UNK         0.5543 
     20 N          26.1243  -44.8407  -59.4281 N.am      10 UNK        -0.7343 
     21 O          27.1343  -42.9165  -59.7928 O.2       10 UNK        -0.5027 
     22 N          26.7145  -44.7508  -56.6386 N.am      10 UNK        -0.4495 
     23 C          25.4874  -45.0292  -56.1815 C.2       10 UNK         0.4903 
     24 O          24.5227  -44.2711  -56.2961 O.2       10 UNK        -0.4860 
     25 CA         25.3129  -46.4129  -55.5241 C.3       9 UNK         0.0227 
     26 CB         23.8523  -46.7212  -55.1349 C.3       9 UNK        -0.1964 
     27 N          25.8664  -47.4947  -56.3485 N.am      9 UNK        -0.4231 
     28 C          25.5487  -47.8139  -57.6125 C.2       9 UNK         0.5014 
     29 O          24.6842  -47.2333  -58.2694 O.2       9 UNK        -0.5270 
     30 CA         26.3601  -48.9352  -58.2886 C.3       8 UNK         0.0284 
     31 CB         27.3985  -48.3269  -59.2458 C.3       8 UNK        -0.1977 
     32 N          27.0446  -49.8198  -57.3421 N.am      8 UNK        -0.4342 
     33 C          26.4386  -50.7480  -56.5884 C.2       8 UNK         0.5039 
     34 O          25.2388  -51.0156  -56.6629 O.2       8 UNK        -0.5547 
     35 CA         27.3125  -51.4738  -55.5488 C.3       7 UNK         0.0281 
     36 CB         28.1074  -52.6161  -56.2003 C.3       7 UNK        -0.1963 
     37 N          28.2250  -50.5645  -54.8472 N.am      7 UNK        -0.4444 
     38 C          27.8249  -49.5591  -54.0548 C.2       7 UNK         0.5104 
     39 O          26.6483  -49.3270  -53.7797 O.2       7 UNK        -0.5100 
     40 CA         28.9119  -48.6208  -53.5149 C.3       6 UNK         0.0396 
     41 CB         29.5425  -49.1883  -52.2351 C.3       6 UNK        -0.1801 
     42 N          29.9450  -48.3280  -54.5125 N.am      6 UNK        -0.4747 
     43 C          29.7529  -47.5998  -55.6244 C.2       6 UNK         0.5012 
     44 O          28.7024  -47.0180  -55.8966 O.2       6 UNK        -0.5003 
     45 CA         30.9289  -47.5301  -56.6150 C.3       5 UNK         0.0782 
     46 C46        31.9013  -46.4051  -56.1991 C.3       11 UNK        -0.0868 
     47 S47        33.3818  -46.2711  -57.2667 S.3       11 UNK        -0.2515 
     48 C48        33.3491  -44.5348  -57.8366 C.3       11 UNK         0.0199 
     49 N          31.5814  -48.8339  -56.7516 N.am      5 UNK        -0.4607 
     50 C          31.0062  -49.9033  -57.3174 C.2       4 UNK         0.5031 
     51 O          29.8749  -49.8911  -57.7999 O.2       4 UNK        -0.5119 
     52 CA         31.8023  -51.2177  -57.3143 C.3       4 UNK         0.0263 
     53 CB         32.6454  -51.3349  -58.5935 C.3       4 UNK        -0.1967 
     54 N          32.6669  -51.3743  -56.1433 N.am      4 UNK        -0.4237 
     55 C          32.2478  -51.4246  -54.8709 C.2       3 UNK         0.4908 
     56 O          31.0611  -51.3632  -54.5420 O.2       3 UNK        -0.5102 
     57 CA         33.3314  -51.5668  -53.7818 C.3       3 UNK         0.0241 
     58 CB         34.7791  -51.5236  -54.3252 C.3       3 UNK        -0.1971 
     59 N          33.1984  -50.5992  -52.6851 N.am      3 UNK        -0.4139 
     60 C          33.0891  -49.2656  -52.7787 C.2       2 UNK         0.5016 
     61 O          32.9222  -48.6463  -53.8326 O.2       2 UNK        -0.5319 
     62 CA         33.2338  -48.4956  -51.4606 C.3       2 UNK         0.0286 
     63 CB         34.7115  -48.4877  -51.0131 C.3       2 UNK        -0.1963 
     64 N          32.7532  -47.1227  -51.6216 N.am      2 UNK        -0.4790 
     65 C          32.5016  -46.2780  -50.6119 C.2       1 UNK         0.5024 
     66 O          32.6022  -46.5952  -49.4252 O.2       1 UNK        -0.4888 
     67 H67        28.6514  -43.8279  -53.3106 H         1 UNK         0.0892 
     68 H68        29.8375  -44.6513  -54.3344 H         1 UNK         0.0892 
     69 H69        28.4340  -45.5202  -53.7065 H         1 UNK         0.0892 
     70 H70        31.6675  -44.2886  -52.9563 H         1 UNK         0.3107 
     71 H71        31.4339  -44.5211  -50.1260 H         1 UNK         0.0773 
     72 H72        33.8129  -43.9040  -50.0553 H         1 UNK         0.0680 
     73 H73        32.8613  -42.8280  -51.0242 H         1 UNK         0.0680 
     74 H74        35.3126  -42.2625  -53.6346 H         1 UNK         0.0650 
     75 H75        33.9955  -41.7157  -52.6400 H         1 UNK         0.0650 
     76 H76        34.6978  -44.0461  -55.5070 H         1 UNK         0.1397 
     77 H77        31.2318  -42.8423  -57.7125 H         1 UNK         0.1363 
     78 H78        31.9075  -41.2835  -53.7751 H         1 UNK         0.1355 
     79 H79        30.1436  -40.3610  -55.1374 H         1 UNK         0.0707 
     80 H80        30.0997  -40.6778  -56.8496 H         1 UNK         0.0707 
     81 H81        29.1947  -43.9426  -57.1783 H         1 UNK         0.1034 
     82 H82        28.8566  -42.4294  -57.9828 H         1 UNK         0.1034 
     83 H83        26.3923  -42.7593  -57.1785 H         1 UNK         0.0482 
     84 H84        25.7421  -45.5289  -58.7922 H         1 UNK         0.3460 
     85 H85        25.9497  -44.9267  -60.4164 H         1 UNK         0.3460 
     86 H86        27.4437  -45.4435  -56.5070 H         1 UNK         0.2989 
     87 H87        25.9039  -46.3956  -54.6071 H         1 UNK         0.0559 
     88 H88        23.4656  -45.9721  -54.4429 H         1 UNK         0.0848 
     89 H89        23.7723  -47.6900  -54.6415 H         1 UNK         0.0848 
     90 H90        23.1943  -46.7320  -56.0044 H         1 UNK         0.0848 
     91 H91        26.6427  -47.9923  -55.9320 H         1 UNK         0.3144 
     92 H92        25.6633  -49.5361  -58.8766 H         1 UNK         0.0727 
     93 H93        27.9538  -49.1023  -59.7740 H         1 UNK         0.0790 
     94 H94        28.1182  -47.7024  -58.7149 H         1 UNK         0.0790 
     95 H95        26.9185  -47.7029  -60.0007 H         1 UNK         0.0790 
     96 H96        28.0577  -49.7322  -57.2895 H         1 UNK         0.3215 
     97 H97        26.6458  -51.9091  -54.8011 H         1 UNK         0.0863 
     98 H98        28.7351  -53.1316  -55.4729 H         1 UNK         0.0808 
     99 H99        28.7492  -52.2558  -57.0034 H         1 UNK         0.0808 
    100 H100       27.4345  -53.3574  -56.6330 H         1 UNK         0.0808 
    101 H101       29.2228  -50.7231  -54.9579 H         1 UNK         0.3118 
    102 H102       28.4196  -47.6868  -53.2468 H         1 UNK         0.0546 
    103 H103       30.0971  -50.1073  -52.4228 H         1 UNK         0.0828 
    104 H104       28.7757  -49.4176  -51.4940 H         1 UNK         0.0828 
    105 H105       30.2181  -48.4665  -51.7784 H         1 UNK         0.0828 
    106 H106       30.8536  -48.7591  -54.3773 H         1 UNK         0.3005 
    107 H107       30.5120  -47.2692  -57.5906 H         1 UNK         0.1257 
    108 H108       31.3541  -45.4634  -56.1961 H         1 UNK         0.0775 
    109 H109       32.2521  -46.5445  -55.1758 H         1 UNK         0.0775 
    110 H110       34.3260  -44.2754  -58.2465 H         1 UNK         0.0840 
    111 H111       32.6397  -44.4557  -58.6619 H         1 UNK         0.0840 
    112 H112       32.4984  -48.9207  -56.3354 H         1 UNK         0.2987 
    113 H113       31.0842  -52.0392  -57.3034 H         1 UNK         0.0785 
    114 H114       33.1501  -52.2995  -58.6507 H         1 UNK         0.0798 
    115 H115       33.4039  -50.5530  -58.6514 H         1 UNK         0.0798 
    116 H116       32.0185  -51.2466  -59.4821 H         1 UNK         0.0798 
    117 H117       33.6600  -51.4278  -56.3177 H         1 UNK         0.3079 
    118 H118       33.1749  -52.5519  -53.3399 H         1 UNK         0.0794 
    119 H119       34.9615  -52.3167  -55.0517 H         1 UNK         0.0786 
    120 H120       35.5005  -51.6683  -53.5207 H         1 UNK         0.0786 
    121 H121       35.0094  -50.5680  -54.7990 H         1 UNK         0.0786 
    122 H122       33.2785  -50.9980  -51.7602 H         1 UNK         0.3032 
    123 H123       32.6225  -48.9945  -50.7050 H         1 UNK         0.1094 
    124 H124       35.3416  -47.9598  -51.7303 H         1 UNK         0.0794 
    125 H125       34.8384  -48.0072  -50.0432 H         1 UNK         0.0794 
    126 H126       35.1058  -49.5001  -50.9168 H         1 UNK         0.0794 
    127 H127       32.6354  -46.8232  -52.5814 H         1 UNK         0.3016 
@<TRIPOS>BOND
     1    1    2 1    
     2    1   67 1    
     3    1   68 1    
     4    1   69 1    
     5    2    3 2    
     6    2    4 am   BACKBONE|DICT|INTERRES
     7    4    5 1    
     8    4   70 1    
     9    5    6 1    
    10    5   65 1    
    11    5   71 1    
    12    6    7 1    
    13    6   72 1    
    14    6   73 1    
    15    7    8 1    
    16    8    9 1    
    17    8   74 1    
    18    8   75 1    
    19    9   10 ar   
    20    9   14 ar   
    21   10   11 ar   
    22   10   76 1    
    23   11   12 ar   
    24   11   48 1    
    25   12   13 ar   
    26   12   77 1    
    27   13   14 ar   
    28   13   15 1    
    29   14   78 1    
    30   15   16 1    
    31   15   79 1    
    32   15   80 1    
    33   16   17 1    
    34   17   18 1    
    35   17   81 1    
    36   17   82 1    
    37   18   19 1    
    38   18   22 1    
    39   18   83 1    
    40   19   20 am   BACKBONE|DICT|INTERRES
    41   19   21 2    
    42   20   84 1    
    43   20   85 1    
    44   22   23 am   BACKBONE|DICT|INTERRES
    45   22   86 1    
    46   23   24 2    
    47   23   25 1    
    48   25   26 1    
    49   25   27 1    
    50   25   87 1    
    51   26   88 1    
    52   26   89 1    
    53   26   90 1    
    54   27   28 am   BACKBONE|DICT|INTERRES
    55   27   91 1    
    56   28   29 2    
    57   28   30 1    
    58   30   31 1    
    59   30   32 1    
    60   30   92 1    
    61   31   93 1    
    62   31   94 1    
    63   31   95 1    
    64   32   33 am   BACKBONE|DICT|INTERRES
    65   32   96 1    
    66   33   34 2    
    67   33   35 1    
    68   35   36 1    
    69   35   37 1    
    70   35   97 1    
    71   36   98 1    
    72   36   99 1    
    73   36  100 1    
    74   37   38 am   BACKBONE|DICT|INTERRES
    75   37  101 1    
    76   38   39 2    
    77   38   40 1    
    78   40   41 1    
    79   40   42 1    
    80   40  102 1    
    81   41  103 1    
    82   41  104 1    
    83   41  105 1    
    84   42   43 am   BACKBONE|DICT|INTERRES
    85   42  106 1    
    86   43   44 2    
    87   43   45 1    
    88   45   46 1    
    89   45   49 1    
    90   45  107 1    
    91   46   47 1    
    92   46  108 1    
    93   46  109 1    
    94   47   48 1    
    95   48  110 1    
    96   48  111 1    
    97   49   50 am   BACKBONE|DICT|INTERRES
    98   49  112 1    
    99   50   51 2    
   100   50   52 1    
   101   52   53 1    
   102   52   54 1    
   103   52  113 1    
   104   53  114 1    
   105   53  115 1    
   106   53  116 1    
   107   54   55 am   BACKBONE|DICT|INTERRES
   108   54  117 1    
   109   55   56 2    
   110   55   57 1    
   111   57   58 1    
   112   57   59 1    
   113   57  118 1    
   114   58  119 1    
   115   58  120 1    
   116   58  121 1    
   117   59   60 am   BACKBONE|DICT|INTERRES
   118   59  122 1    
   119   60   61 2    
   120   60   62 1    
   121   62   63 1    
   122   62   64 1    
   123   62  123 1    
   124   63  124 1    
   125   63  125 1    
   126   63  126 1    
   127   64   65 am   BACKBONE|DICT|INTERRES
   128   64  127 1    
   129   65   66 2    
@<TRIPOS>SUBSTRUCTURE
     1 UNK         1 GROUP             0       ****    0 ROOT    
