@<TRIPOS>MOLECULE
3R134
127   129    1
SMALL
USER_CHARGES


@<TRIPOS>ATOM
      1 CA         38.5216  -44.7548  -51.8588 C.3       0 UNK        -0.1968 
      2 C          37.0642  -45.0838  -52.1467 C.2       0 UNK         0.4852 
      3 O          36.2348  -45.0114  -51.2381 O.2       0 UNK        -0.5359 
      4 N          36.7556  -45.4548  -53.3983 N.am      1 UNK        -0.4300 
      5 CA         35.4350  -45.8071  -53.9478 C.3       1 UNK         0.0863 
      6 C6         34.3716  -44.6869  -53.8189 C.3       11 UNK        -0.0953 
      7 S7         34.8485  -43.1772  -54.7253 S.3       11 UNK        -0.2369 
      8 C8         33.7384  -41.9435  -53.9754 C.3       11 UNK         0.0226 
      9 C9         32.2781  -42.3508  -54.1043 C.ar      11 UNK        -0.0699 
     10 C10        31.5874  -42.8451  -52.9948 C.ar      11 UNK        -0.0804 
     11 C11        30.2649  -43.2809  -53.1154 C.ar      11 UNK        -0.0871 
     12 C12        29.6258  -43.2023  -54.3569 C.ar      11 UNK        -0.1008 
     13 C13        30.3034  -42.6933  -55.4704 C.ar      11 UNK        -0.0735 
     14 C14        31.6275  -42.2658  -55.3380 C.ar      11 UNK        -0.0945 
     15 C15        29.6120  -42.6213  -56.8212 C.3       11 UNK         0.0169 
     16 S16        29.8874  -44.1515  -57.7613 S.3       11 UNK        -0.2669 
     17 C17        28.8319  -43.8701  -59.2242 C.3       11 UNK        -0.0850 
     18 CA         27.3100  -44.0087  -58.9425 C.3       10 UNK         0.0855 
     19 C          26.4776  -43.8086  -60.2447 C.2       10 UNK         0.5543 
     20 N          25.6300  -44.7443  -60.6577 N.am      10 UNK        -0.7343 
     21 O          26.6018  -42.7731  -60.8939 O.2       10 UNK        -0.5027 
     22 N          26.9952  -45.2334  -58.1920 N.am      10 UNK        -0.4495 
     23 C          25.8919  -45.4220  -57.4599 C.2       10 UNK         0.4903 
     24 O          25.0315  -44.5584  -57.2791 O.2       10 UNK        -0.4860 
     25 CA         25.7248  -46.8242  -56.8470 C.3       9 UNK         0.0227 
     26 CB         24.3036  -47.0843  -56.3067 C.3       9 UNK        -0.1964 
     27 N          26.1325  -47.9028  -57.7558 N.am      9 UNK        -0.4231 
     28 C          25.6565  -48.1691  -58.9817 C.2       9 UNK         0.5014 
     29 O          24.8338  -47.4592  -59.5620 O.2       9 UNK        -0.5270 
     30 CA         26.1515  -49.4475  -59.6898 C.3       8 UNK         0.0284 
     31 CB         27.1509  -49.1102  -60.8155 C.3       8 UNK        -0.1977 
     32 N          26.6661  -50.4898  -58.7847 N.am      8 UNK        -0.4342 
     33 C          27.7901  -50.4733  -58.0568 C.2       8 UNK         0.5039 
     34 O          28.6186  -49.5648  -58.0920 O.2       8 UNK        -0.5547 
     35 CA         27.9705  -51.6116  -57.0447 C.3       7 UNK         0.0281 
     36 CB         29.3818  -52.2191  -57.1265 C.3       7 UNK        -0.1963 
     37 N          27.7429  -51.0971  -55.6943 N.am      7 UNK        -0.4444 
     38 C          26.5453  -50.7794  -55.1829 C.2       7 UNK         0.5104 
     39 O          25.4841  -50.9397  -55.7863 O.2       7 UNK        -0.5100 
     40 CA         26.5204  -50.1802  -53.7690 C.3       6 UNK         0.0396 
     41 CB         26.7385  -51.2781  -52.7151 C.3       6 UNK        -0.1801 
     42 N          27.5439  -49.1460  -53.6074 N.am      6 UNK        -0.4747 
     43 C          27.3044  -47.8459  -53.3744 C.2       6 UNK         0.5012 
     44 O          26.1747  -47.3718  -53.2516 O.2       6 UNK        -0.5003 
     45 CA         28.5231  -46.9035  -53.2403 C.3       5 UNK         0.0782 
     46 C46        28.7687  -46.5692  -51.7480 C.3       11 UNK        -0.0868 
     47 S47        30.2030  -45.4815  -51.4581 S.3       11 UNK        -0.2515 
     48 C48        29.5446  -43.8418  -51.8987 C.3       11 UNK         0.0199 
     49 N          29.7193  -47.4367  -53.8972 N.am      5 UNK        -0.4607 
     50 C          29.8593  -47.5659  -55.2234 C.2       4 UNK         0.5031 
     51 O          29.0295  -47.1515  -56.0311 O.2       4 UNK        -0.5119 
     52 CA         31.1063  -48.3118  -55.7383 C.3       4 UNK         0.0263 
     53 CB         32.1141  -47.3170  -56.3336 C.3       4 UNK        -0.1967 
     54 N          31.7804  -49.1559  -54.7393 N.am      4 UNK        -0.4237 
     55 C          31.2152  -50.1928  -54.0982 C.2       3 UNK         0.4908 
     56 O          30.0427  -50.5313  -54.2587 O.2       3 UNK        -0.5102 
     57 CA         32.0662  -50.9830  -53.0899 C.3       3 UNK         0.0241 
     58 CB         32.5524  -52.2967  -53.7225 C.3       3 UNK        -0.1971 
     59 N          33.2148  -50.2511  -52.5538 N.am      3 UNK        -0.4139 
     60 C          33.1524  -49.1431  -51.8022 C.2       2 UNK         0.5016 
     61 O          32.0986  -48.5934  -51.4800 O.2       2 UNK        -0.5319 
     62 CA         34.4938  -48.5339  -51.3480 C.3       2 UNK         0.0286 
     63 CB         35.6725  -49.5333  -51.3736 C.3       2 UNK        -0.1963 
     64 N          34.8562  -47.3264  -52.0988 N.am      2 UNK        -0.4790 
     65 C          34.9026  -47.1592  -53.4283 C.2       1 UNK         0.5024 
     66 O          34.5743  -48.0254  -54.2415 O.2       1 UNK        -0.4888 
     67 H67        38.9107  -45.4195  -51.0880 H         1 UNK         0.0892 
     68 H68        39.1477  -44.8594  -52.7448 H         1 UNK         0.0892 
     69 H69        38.6096  -43.7293  -51.5012 H         1 UNK         0.0892 
     70 H70        37.5064  -45.5106  -54.0726 H         1 UNK         0.3107 
     71 H71        35.6071  -45.9567  -55.0153 H         1 UNK         0.0773 
     72 H72        33.4122  -45.0179  -54.2186 H         1 UNK         0.0680 
     73 H73        34.1901  -44.4371  -52.7727 H         1 UNK         0.0680 
     74 H74        33.8942  -40.9806  -54.4637 H         1 UNK         0.0650 
     75 H75        34.0127  -41.8063  -52.9282 H         1 UNK         0.0650 
     76 H76        32.0877  -42.9198  -52.0388 H         1 UNK         0.1397 
     77 H77        28.6053  -43.5438  -54.4632 H         1 UNK         0.1363 
     78 H78        32.1616  -41.8916  -56.2009 H         1 UNK         0.1355 
     79 H79        29.9815  -41.7689  -57.3932 H         1 UNK         0.0707 
     80 H80        28.5429  -42.4613  -56.6776 H         1 UNK         0.0707 
     81 H81        29.0581  -42.8825  -59.6311 H         1 UNK         0.1034 
     82 H82        29.1365  -44.5856  -59.9902 H         1 UNK         0.1034 
     83 H83        27.0289  -43.1704  -58.3034 H         1 UNK         0.0482 
     84 H84        25.4854  -45.5961  -60.1275 H         1 UNK         0.3460 
     85 H85        25.1018  -44.5878  -61.5011 H         1 UNK         0.3460 
     86 H86        27.6707  -45.9825  -58.2510 H         1 UNK         0.2989 
     87 H87        26.4076  -46.8640  -56.0001 H         1 UNK         0.0559 
     88 H88        24.0383  -46.3559  -55.5395 H         1 UNK         0.0848 
     89 H89        23.5525  -47.0197  -57.0946 H         1 UNK         0.0848 
     90 H90        24.2305  -48.0716  -55.8500 H         1 UNK         0.0848 
     91 H91        26.9030  -48.4792  -57.4350 H         1 UNK         0.3144 
     92 H92        25.2712  -49.8871  -60.1615 H         1 UNK         0.0727 
     93 H93        27.4747  -50.0079  -61.3419 H         1 UNK         0.0790 
     94 H94        28.0386  -48.6019  -60.4384 H         1 UNK         0.0790 
     95 H95        26.6936  -48.4488  -61.5527 H         1 UNK         0.0790 
     96 H96        26.0235  -51.2533  -58.6183 H         1 UNK         0.3215 
     97 H97        27.2459  -52.4028  -57.2494 H         1 UNK         0.0863 
     98 H98        29.5725  -52.6275  -58.1196 H         1 UNK         0.0808 
     99 H99        30.1559  -51.4774  -56.9255 H         1 UNK         0.0808 
    100 H100       29.5060  -53.0314  -56.4102 H         1 UNK         0.0808 
    101 H101       28.5801  -50.9108  -55.1431 H         1 UNK         0.3118 
    102 H102       25.5249  -49.7596  -53.6126 H         1 UNK         0.0546 
    103 H103       25.9977  -52.0721  -52.8185 H         1 UNK         0.0828 
    104 H104       26.6457  -50.8786  -51.7052 H         1 UNK         0.0828 
    105 H105       27.7245  -51.7364  -52.8033 H         1 UNK         0.0828 
    106 H106       28.5068  -49.4456  -53.7294 H         1 UNK         0.3005 
    107 H107       28.2566  -45.9781  -53.7552 H         1 UNK         0.1257 
    108 H108       28.9434  -47.4868  -51.1822 H         1 UNK         0.0775 
    109 H109       27.8851  -46.1069  -51.3033 H         1 UNK         0.0775 
    110 H110       28.4689  -43.8910  -52.0726 H         1 UNK         0.0840 
    111 H111       29.6839  -43.1667  -51.0530 H         1 UNK         0.0840 
    112 H112       30.4550  -47.7700  -53.2883 H         1 UNK         0.2987 
    113 H113       30.7693  -48.9714  -56.5400 H         1 UNK         0.0785 
    114 H114       31.6563  -46.7309  -57.1319 H         1 UNK         0.0798 
    115 H115       32.9776  -47.8277  -56.7597 H         1 UNK         0.0798 
    116 H116       32.4726  -46.6152  -55.5822 H         1 UNK         0.0798 
    117 H117       32.7474  -48.9257  -54.5323 H         1 UNK         0.3079 
    118 H118       31.4145  -51.2299  -52.2491 H         1 UNK         0.0794 
    119 H119       31.7136  -52.8792  -54.1072 H         1 UNK         0.0786 
    120 H120       33.0700  -52.9214  -52.9942 H         1 UNK         0.0786 
    121 H121       33.2324  -52.1159  -54.5561 H         1 UNK         0.0786 
    122 H122       34.1293  -50.6052  -52.7943 H         1 UNK         0.3032 
    123 H123       34.3462  -48.2247  -50.3117 H         1 UNK         0.1094 
    124 H124       36.5572  -49.0997  -50.9069 H         1 UNK         0.0794 
    125 H125       35.4348  -50.4415  -50.8176 H         1 UNK         0.0794 
    126 H126       35.9505  -49.8231  -52.3877 H         1 UNK         0.0794 
    127 H127       35.1624  -46.5307  -51.5417 H         1 UNK         0.3016 
@<TRIPOS>BOND
     1    1    2 1    
     2    1   67 1    
     3    1   68 1    
     4    1   69 1    
     5    2    3 2    
     6    2    4 am   BACKBONE|DICT|INTERRES
     7    4    5 1    
     8    4   70 1    
     9    5    6 1    
    10    5   65 1    
    11    5   71 1    
    12    6    7 1    
    13    6   72 1    
    14    6   73 1    
    15    7    8 1    
    16    8    9 1    
    17    8   74 1    
    18    8   75 1    
    19    9   10 ar   
    20    9   14 ar   
    21   10   11 ar   
    22   10   76 1    
    23   11   12 ar   
    24   11   48 1    
    25   12   13 ar   
    26   12   77 1    
    27   13   14 ar   
    28   13   15 1    
    29   14   78 1    
    30   15   16 1    
    31   15   79 1    
    32   15   80 1    
    33   16   17 1    
    34   17   18 1    
    35   17   81 1    
    36   17   82 1    
    37   18   19 1    
    38   18   22 1    
    39   18   83 1    
    40   19   20 am   BACKBONE|DICT|INTERRES
    41   19   21 2    
    42   20   84 1    
    43   20   85 1    
    44   22   23 am   BACKBONE|DICT|INTERRES
    45   22   86 1    
    46   23   24 2    
    47   23   25 1    
    48   25   26 1    
    49   25   27 1    
    50   25   87 1    
    51   26   88 1    
    52   26   89 1    
    53   26   90 1    
    54   27   28 am   BACKBONE|DICT|INTERRES
    55   27   91 1    
    56   28   29 2    
    57   28   30 1    
    58   30   31 1    
    59   30   32 1    
    60   30   92 1    
    61   31   93 1    
    62   31   94 1    
    63   31   95 1    
    64   32   33 am   BACKBONE|DICT|INTERRES
    65   32   96 1    
    66   33   34 2    
    67   33   35 1    
    68   35   36 1    
    69   35   37 1    
    70   35   97 1    
    71   36   98 1    
    72   36   99 1    
    73   36  100 1    
    74   37   38 am   BACKBONE|DICT|INTERRES
    75   37  101 1    
    76   38   39 2    
    77   38   40 1    
    78   40   41 1    
    79   40   42 1    
    80   40  102 1    
    81   41  103 1    
    82   41  104 1    
    83   41  105 1    
    84   42   43 am   BACKBONE|DICT|INTERRES
    85   42  106 1    
    86   43   44 2    
    87   43   45 1    
    88   45   46 1    
    89   45   49 1    
    90   45  107 1    
    91   46   47 1    
    92   46  108 1    
    93   46  109 1    
    94   47   48 1    
    95   48  110 1    
    96   48  111 1    
    97   49   50 am   BACKBONE|DICT|INTERRES
    98   49  112 1    
    99   50   51 2    
   100   50   52 1    
   101   52   53 1    
   102   52   54 1    
   103   52  113 1    
   104   53  114 1    
   105   53  115 1    
   106   53  116 1    
   107   54   55 am   BACKBONE|DICT|INTERRES
   108   54  117 1    
   109   55   56 2    
   110   55   57 1    
   111   57   58 1    
   112   57   59 1    
   113   57  118 1    
   114   58  119 1    
   115   58  120 1    
   116   58  121 1    
   117   59   60 am   BACKBONE|DICT|INTERRES
   118   59  122 1    
   119   60   61 2    
   120   60   62 1    
   121   62   63 1    
   122   62   64 1    
   123   62  123 1    
   124   63  124 1    
   125   63  125 1    
   126   63  126 1    
   127   64   65 am   BACKBONE|DICT|INTERRES
   128   64  127 1    
   129   65   66 2    
@<TRIPOS>SUBSTRUCTURE
     1 UNK         1 GROUP             0       ****    0 ROOT    
