@<TRIPOS>MOLECULE
3R134
127   129    1
SMALL
USER_CHARGES


@<TRIPOS>ATOM
      1 CA         35.6323  -43.7459  -50.8593 C.3       0 UNK        -0.1968 
      2 C          34.1546  -44.0126  -51.1279 C.2       0 UNK         0.4852 
      3 O          33.3047  -43.3514  -50.5344 O.2       0 UNK        -0.5359 
      4 N          33.7878  -44.9611  -51.9997 N.am      1 UNK        -0.4300 
      5 CA         34.6576  -45.8545  -52.7810 C.3       1 UNK         0.0863 
      6 C6         34.6267  -45.5442  -54.3034 C.3       11 UNK        -0.0953 
      7 S7         35.1279  -43.8278  -54.6810 S.3       11 UNK        -0.2369 
      8 C8         34.0813  -43.4078  -56.1217 C.3       11 UNK         0.0226 
      9 C9         32.5705  -43.4799  -55.8906 C.ar      11 UNK        -0.0699 
     10 C10        32.0010  -43.3382  -54.6194 C.ar      11 UNK        -0.0804 
     11 C11        30.6242  -43.4837  -54.4337 C.ar      11 UNK        -0.0871 
     12 C12        29.8008  -43.7088  -55.5392 C.ar      11 UNK        -0.1008 
     13 C13        30.3487  -43.8258  -56.8182 C.ar      11 UNK        -0.0735 
     14 C14        31.7317  -43.7095  -56.9862 C.ar      11 UNK        -0.0945 
     15 C15        29.4614  -44.1680  -58.0039 C.3       11 UNK         0.0169 
     16 S16        28.7665  -42.7113  -58.8421 S.3       11 UNK        -0.2669 
     17 C17        27.4612  -42.1284  -57.6984 C.3       11 UNK        -0.0850 
     18 CA         26.0785  -42.8275  -57.8323 C.3       10 UNK         0.0855 
     19 C          25.4636  -42.7065  -59.2598 C.2       10 UNK         0.5543 
     20 N          25.1615  -43.7972  -59.9559 N.am      10 UNK        -0.7343 
     21 O          25.2407  -41.5962  -59.7365 O.2       10 UNK        -0.5027 
     22 N          26.0915  -44.1899  -57.2755 N.am      10 UNK        -0.4495 
     23 C          25.0103  -44.8361  -56.8192 C.2       10 UNK         0.4903 
     24 O          23.8990  -44.3126  -56.7225 O.2       10 UNK        -0.4860 
     25 CA         25.1986  -46.3092  -56.3944 C.3       9 UNK         0.0227 
     26 CB         23.8826  -47.1126  -56.4587 C.3       9 UNK        -0.1964 
     27 N          26.2620  -47.0345  -57.1073 N.am      9 UNK        -0.4231 
     28 C          26.3753  -47.2067  -58.4342 C.2       9 UNK         0.5014 
     29 O          25.6371  -46.6631  -59.2575 O.2       9 UNK        -0.5270 
     30 CA         27.4966  -48.1257  -58.9477 C.3       8 UNK         0.0284 
     31 CB         28.7252  -47.3176  -59.3868 C.3       8 UNK        -0.1977 
     32 N          27.9092  -49.1607  -57.9942 N.am      8 UNK        -0.4342 
     33 C          27.2550  -50.3210  -57.8400 C.2       8 UNK         0.5039 
     34 O          26.1932  -50.5882  -58.4049 O.2       8 UNK        -0.5547 
     35 CA         27.9101  -51.3826  -56.9421 C.3       7 UNK         0.0281 
     36 CB         29.1789  -51.9480  -57.6027 C.3       7 UNK        -0.1963 
     37 N          28.2263  -50.8858  -55.6040 N.am      7 UNK        -0.4444 
     38 C          27.3131  -50.6068  -54.6636 C.2       7 UNK         0.5104 
     39 O          26.1010  -50.7649  -54.8129 O.2       7 UNK        -0.5100 
     40 CA         27.8374  -50.0453  -53.3285 C.3       6 UNK         0.0396 
     41 CB         28.2977  -51.1823  -52.4034 C.3       6 UNK        -0.1801 
     42 N          28.9232  -49.0750  -53.4882 N.am      6 UNK        -0.4747 
     43 C          28.8223  -47.9239  -54.1696 C.2       6 UNK         0.5012 
     44 O          27.8014  -47.5511  -54.7465 O.2       6 UNK        -0.5003 
     45 CA         30.1028  -47.0788  -54.2852 C.3       5 UNK         0.0782 
     46 C46        30.4115  -46.2909  -52.9853 C.3       11 UNK        -0.0868 
     47 S47        29.1705  -45.0012  -52.6069 S.3       11 UNK        -0.2515 
     48 C48        30.0357  -43.4502  -53.0306 C.3       11 UNK         0.0199 
     49 N          31.2308  -47.9097  -54.7144 N.am      5 UNK        -0.4607 
     50 C          31.3075  -48.5237  -55.9050 C.2       4 UNK         0.5031 
     51 O          30.4641  -48.4092  -56.7939 O.2       4 UNK        -0.5119 
     52 CA         32.4922  -49.4773  -56.1183 C.3       4 UNK         0.0263 
     53 CB         33.7261  -48.7150  -56.6231 C.3       4 UNK        -0.1967 
     54 N          32.8192  -50.2282  -54.9031 N.am      4 UNK        -0.4237 
     55 C          32.0281  -51.1860  -54.3944 C.2       3 UNK         0.4908 
     56 O          30.9787  -51.5522  -54.9215 O.2       3 UNK        -0.5102 
     57 CA         32.4436  -51.8192  -53.0562 C.3       3 UNK         0.0241 
     58 CB         33.3581  -53.0308  -53.2960 C.3       3 UNK        -0.1971 
     59 N          33.0974  -50.8872  -52.1353 N.am      3 UNK        -0.4139 
     60 C          32.5526  -49.7605  -51.6557 C.2       2 UNK         0.5016 
     61 O          31.4211  -49.3705  -51.9489 O.2       2 UNK        -0.5319 
     62 CA         33.4198  -48.9025  -50.7135 C.3       2 UNK         0.0286 
     63 CB         34.7152  -49.6001  -50.2377 C.3       2 UNK        -0.1963 
     64 N          33.7443  -47.5885  -51.2851 N.am      2 UNK        -0.4790 
     65 C          34.3189  -47.3311  -52.4730 C.2       1 UNK         0.5024 
     66 O          34.5827  -48.2046  -53.3012 O.2       1 UNK        -0.4888 
     67 H67        35.7518  -42.8978  -50.1853 H         1 UNK         0.0892 
     68 H68        36.1025  -44.6110  -50.3928 H         1 UNK         0.0892 
     69 H69        36.1601  -43.5101  -51.7828 H         1 UNK         0.0892 
     70 H70        32.7996  -45.1053  -52.1405 H         1 UNK         0.3107 
     71 H71        35.6937  -45.7504  -52.4590 H         1 UNK         0.0773 
     72 H72        33.6335  -45.7398  -54.7104 H         1 UNK         0.0680 
     73 H73        35.3130  -46.1999  -54.8418 H         1 UNK         0.0680 
     74 H74        34.3602  -44.0728  -56.9407 H         1 UNK         0.0650 
     75 H75        34.3317  -42.3968  -56.4450 H         1 UNK         0.0650 
     76 H76        32.6317  -43.1462  -53.7639 H         1 UNK         0.1397 
     77 H77        28.7380  -43.8414  -55.3904 H         1 UNK         0.1363 
     78 H78        32.1592  -43.8214  -57.9735 H         1 UNK         0.1355 
     79 H79        30.0461  -44.7222  -58.7391 H         1 UNK         0.0707 
     80 H80        28.6628  -44.8370  -57.6895 H         1 UNK         0.0707 
     81 H81        27.8142  -42.1814  -56.6699 H         1 UNK         0.1034 
     82 H82        27.3347  -41.0606  -57.8866 H         1 UNK         0.1034 
     83 H83        25.4023  -42.2510  -57.1976 H         1 UNK         0.0482 
     84 H84        25.3336  -44.7248  -59.5815 H         1 UNK         0.3460 
     85 H85        24.7588  -43.6975  -60.8737 H         1 UNK         0.3460 
     86 H86        26.9554  -44.7007  -57.3569 H         1 UNK         0.2989 
     87 H87        25.5070  -46.2749  -55.3490 H         1 UNK         0.0559 
     88 H88        23.4817  -47.1471  -57.4724 H         1 UNK         0.0848 
     89 H89        23.1173  -46.6706  -55.8196 H         1 UNK         0.0848 
     90 H90        24.0293  -48.1388  -56.1211 H         1 UNK         0.0848 
     91 H91        26.9423  -47.4798  -56.4963 H         1 UNK         0.3144 
     92 H92        27.1049  -48.6172  -59.8413 H         1 UNK         0.0727 
     93 H93        29.2659  -46.9203  -58.5307 H         1 UNK         0.0790 
     94 H94        28.4444  -46.4795  -60.0266 H         1 UNK         0.0790 
     95 H95        29.4202  -47.9384  -59.9524 H         1 UNK         0.0790 
     96 H96        28.7839  -49.0049  -57.4962 H         1 UNK         0.3215 
     97 H97        27.1992  -52.2048  -56.8336 H         1 UNK         0.0863 
     98 H98        29.5842  -52.7818  -57.0290 H         1 UNK         0.0808 
     99 H99        29.9618  -51.1941  -57.6915 H         1 UNK         0.0808 
    100 H100       28.9659  -52.3192  -58.6061 H         1 UNK         0.0808 
    101 H101       29.2108  -50.8047  -55.3658 H         1 UNK         0.3118 
    102 H102       27.0096  -49.5262  -52.8411 H         1 UNK         0.0546 
    103 H103       27.4852  -51.8858  -52.2172 H         1 UNK         0.0828 
    104 H104       28.6256  -50.8009  -51.4362 H         1 UNK         0.0828 
    105 H105       29.1229  -51.7465  -52.8381 H         1 UNK         0.0828 
    106 H106       29.8066  -49.2881  -53.0303 H         1 UNK         0.3005 
    107 H107       29.9310  -46.3593  -55.0866 H         1 UNK         0.1257 
    108 H108       31.3887  -45.8203  -53.0718 H         1 UNK         0.0775 
    109 H109       30.4781  -46.9598  -52.1264 H         1 UNK         0.0775 
    110 H110       29.3327  -42.6194  -52.9571 H         1 UNK         0.0840 
    111 H111       30.8100  -43.2640  -52.2844 H         1 UNK         0.0840 
    112 H112       31.9224  -48.1333  -54.0136 H         1 UNK         0.2987 
    113 H113       32.2036  -50.1937  -56.8907 H         1 UNK         0.0785 
    114 H114       33.5029  -48.1855  -57.5504 H         1 UNK         0.0798 
    115 H115       34.5550  -49.3926  -56.8280 H         1 UNK         0.0798 
    116 H116       34.0688  -47.9748  -55.9022 H         1 UNK         0.0798 
    117 H117       33.6409  -49.9371  -54.3866 H         1 UNK         0.3079 
    118 H118       31.5336  -52.1722  -52.5674 H         1 UNK         0.0794 
    119 H119       34.3048  -52.7394  -53.7528 H         1 UNK         0.0786 
    120 H120       32.8827  -53.7519  -53.9627 H         1 UNK         0.0786 
    121 H121       33.5798  -53.5521  -52.3645 H         1 UNK         0.0786 
    122 H122       34.0412  -51.1124  -51.8562 H         1 UNK         0.3032 
    123 H123       32.8021  -48.7185  -49.8326 H         1 UNK         0.1094 
    124 H124       35.2349  -48.9892  -49.4993 H         1 UNK         0.0794 
    125 H125       34.4997  -50.5559  -49.7576 H         1 UNK         0.0794 
    126 H126       35.4131  -49.7829  -51.0558 H         1 UNK         0.0794 
    127 H127       33.5425  -46.7988  -50.6874 H         1 UNK         0.3016 
@<TRIPOS>BOND
     1    1    2 1    
     2    1   67 1    
     3    1   68 1    
     4    1   69 1    
     5    2    3 2    
     6    2    4 am   BACKBONE|DICT|INTERRES
     7    4    5 1    
     8    4   70 1    
     9    5    6 1    
    10    5   65 1    
    11    5   71 1    
    12    6    7 1    
    13    6   72 1    
    14    6   73 1    
    15    7    8 1    
    16    8    9 1    
    17    8   74 1    
    18    8   75 1    
    19    9   10 ar   
    20    9   14 ar   
    21   10   11 ar   
    22   10   76 1    
    23   11   12 ar   
    24   11   48 1    
    25   12   13 ar   
    26   12   77 1    
    27   13   14 ar   
    28   13   15 1    
    29   14   78 1    
    30   15   16 1    
    31   15   79 1    
    32   15   80 1    
    33   16   17 1    
    34   17   18 1    
    35   17   81 1    
    36   17   82 1    
    37   18   19 1    
    38   18   22 1    
    39   18   83 1    
    40   19   20 am   BACKBONE|DICT|INTERRES
    41   19   21 2    
    42   20   84 1    
    43   20   85 1    
    44   22   23 am   BACKBONE|DICT|INTERRES
    45   22   86 1    
    46   23   24 2    
    47   23   25 1    
    48   25   26 1    
    49   25   27 1    
    50   25   87 1    
    51   26   88 1    
    52   26   89 1    
    53   26   90 1    
    54   27   28 am   BACKBONE|DICT|INTERRES
    55   27   91 1    
    56   28   29 2    
    57   28   30 1    
    58   30   31 1    
    59   30   32 1    
    60   30   92 1    
    61   31   93 1    
    62   31   94 1    
    63   31   95 1    
    64   32   33 am   BACKBONE|DICT|INTERRES
    65   32   96 1    
    66   33   34 2    
    67   33   35 1    
    68   35   36 1    
    69   35   37 1    
    70   35   97 1    
    71   36   98 1    
    72   36   99 1    
    73   36  100 1    
    74   37   38 am   BACKBONE|DICT|INTERRES
    75   37  101 1    
    76   38   39 2    
    77   38   40 1    
    78   40   41 1    
    79   40   42 1    
    80   40  102 1    
    81   41  103 1    
    82   41  104 1    
    83   41  105 1    
    84   42   43 am   BACKBONE|DICT|INTERRES
    85   42  106 1    
    86   43   44 2    
    87   43   45 1    
    88   45   46 1    
    89   45   49 1    
    90   45  107 1    
    91   46   47 1    
    92   46  108 1    
    93   46  109 1    
    94   47   48 1    
    95   48  110 1    
    96   48  111 1    
    97   49   50 am   BACKBONE|DICT|INTERRES
    98   49  112 1    
    99   50   51 2    
   100   50   52 1    
   101   52   53 1    
   102   52   54 1    
   103   52  113 1    
   104   53  114 1    
   105   53  115 1    
   106   53  116 1    
   107   54   55 am   BACKBONE|DICT|INTERRES
   108   54  117 1    
   109   55   56 2    
   110   55   57 1    
   111   57   58 1    
   112   57   59 1    
   113   57  118 1    
   114   58  119 1    
   115   58  120 1    
   116   58  121 1    
   117   59   60 am   BACKBONE|DICT|INTERRES
   118   59  122 1    
   119   60   61 2    
   120   60   62 1    
   121   62   63 1    
   122   62   64 1    
   123   62  123 1    
   124   63  124 1    
   125   63  125 1    
   126   63  126 1    
   127   64   65 am   BACKBONE|DICT|INTERRES
   128   64  127 1    
   129   65   66 2    
@<TRIPOS>SUBSTRUCTURE
     1 UNK         1 GROUP             0       ****    0 ROOT    
