@<TRIPOS>MOLECULE
3R134
127   129    1
SMALL
USER_CHARGES


@<TRIPOS>ATOM
      1 CA         33.5229  -47.1313  -50.9186 C.3       0 UNK        -0.1968 
      2 C          34.1258  -46.6569  -52.2322 C.2       0 UNK         0.4852 
      3 O          35.2878  -46.2491  -52.2555 O.2       0 UNK        -0.5359 
      4 N          33.3478  -46.7066  -53.3229 N.am      1 UNK        -0.4300 
      5 CA         33.8081  -46.3991  -54.6818 C.3       1 UNK         0.0863 
      6 C6         32.6265  -46.0415  -55.6192 C.3       11 UNK        -0.0953 
      7 S7         33.0625  -44.7406  -56.8202 S.3       11 UNK        -0.2369 
      8 C8         33.0078  -43.2285  -55.8007 C.3       11 UNK         0.0226 
      9 C9         31.6713  -43.0323  -55.0977 C.ar      11 UNK        -0.0699 
     10 C10        31.5701  -43.2292  -53.7164 C.ar      11 UNK        -0.0804 
     11 C11        30.3488  -43.0460  -53.0639 C.ar      11 UNK        -0.0871 
     12 C12        29.2286  -42.6599  -53.8038 C.ar      11 UNK        -0.1008 
     13 C13        29.3091  -42.4568  -55.1842 C.ar      11 UNK        -0.0735 
     14 C14        30.5415  -42.6450  -55.8258 C.ar      11 UNK        -0.0945 
     15 C15        28.0344  -42.0201  -55.9068 C.3       11 UNK         0.0169 
     16 S16        28.1391  -41.8554  -57.7225 S.3       11 UNK        -0.2669 
     17 C17        26.4104  -41.3760  -58.0874 C.3       11 UNK        -0.0850 
     18 CA         25.5556  -42.5119  -58.7142 C.3       10 UNK         0.0855 
     19 C          25.7813  -42.6471  -60.2503 C.2       10 UNK         0.5543 
     20 N          26.1384  -43.8084  -60.7851 N.am      10 UNK        -0.7343 
     21 O          25.6076  -41.6738  -60.9798 O.2       10 UNK        -0.5027 
     22 N          25.6871  -43.7625  -57.9526 N.am      10 UNK        -0.4495 
     23 C          24.7730  -44.7355  -57.8768 C.2       10 UNK         0.4903 
     24 O          23.6405  -44.6469  -58.3538 O.2       10 UNK        -0.4860 
     25 CA         25.2135  -46.0268  -57.1508 C.3       9 UNK         0.0227 
     26 CB         24.3334  -47.2386  -57.5211 C.3       9 UNK        -0.1964 
     27 N          26.6386  -46.3529  -57.3286 N.am      9 UNK        -0.4231 
     28 C          27.2908  -46.5055  -58.4944 C.2       9 UNK         0.5014 
     29 O          26.7658  -46.3843  -59.6013 O.2       9 UNK        -0.5270 
     30 CA         28.7861  -46.8306  -58.4117 C.3       8 UNK         0.0284 
     31 CB         29.5855  -45.6115  -57.9254 C.3       8 UNK        -0.1977 
     32 N          29.0139  -47.9677  -57.5230 N.am      8 UNK        -0.4342 
     33 C          29.0692  -49.2460  -57.9254 C.2       8 UNK         0.5039 
     34 O          29.0575  -49.5981  -59.1055 O.2       8 UNK        -0.5547 
     35 CA         29.1332  -50.3223  -56.8252 C.3       7 UNK         0.0281 
     36 CB         30.5935  -50.6653  -56.4926 C.3       7 UNK        -0.1963 
     37 N          28.4371  -49.9123  -55.6041 N.am      7 UNK        -0.4444 
     38 C          27.1071  -49.7615  -55.5070 C.2       7 UNK         0.5104 
     39 O          26.3192  -50.1044  -56.3876 O.2       7 UNK        -0.5100 
     40 CA         26.5561  -49.0942  -54.2305 C.3       6 UNK         0.0396 
     41 CB         25.8397  -50.1307  -53.3502 C.3       6 UNK        -0.1801 
     42 N          27.5693  -48.4036  -53.4249 N.am      6 UNK        -0.4747 
     43 C          28.2877  -47.3351  -53.8054 C.2       6 UNK         0.5012 
     44 O          28.1498  -46.7793  -54.8968 O.2       6 UNK        -0.5003 
     45 CA         29.4037  -46.8757  -52.8439 C.3       5 UNK         0.0782 
     46 C46        28.9206  -45.7346  -51.9209 C.3       11 UNK        -0.0868 
     47 S47        30.3333  -44.9787  -51.0463 S.3       11 UNK        -0.2515 
     48 C48        30.2387  -43.2321  -51.5560 C.3       11 UNK         0.0199 
     49 N          29.9368  -48.0116  -52.0740 N.am      5 UNK        -0.4607 
     50 C          30.7309  -48.9614  -52.5789 C.2       4 UNK         0.5031 
     51 O          31.2501  -48.8874  -53.6968 O.2       4 UNK        -0.5119 
     52 CA         30.9641  -50.1984  -51.7027 C.3       4 UNK         0.0263 
     53 CB         29.6538  -50.9828  -51.4887 C.3       4 UNK        -0.1967 
     54 N          31.9440  -51.0501  -52.3659 N.am      4 UNK        -0.4237 
     55 C          32.7110  -51.9845  -51.7914 C.2       3 UNK         0.4908 
     56 O          32.6542  -52.2788  -50.5969 O.2       3 UNK        -0.5102 
     57 CA         33.7173  -52.7174  -52.7024 C.3       3 UNK         0.0241 
     58 CB         33.1454  -54.0728  -53.1496 C.3       3 UNK        -0.1971 
     59 N          34.1006  -51.9417  -53.8882 N.am      3 UNK        -0.4139 
     60 C          34.8286  -50.8171  -53.8532 C.2       2 UNK         0.5016 
     61 O          35.3297  -50.3627  -52.8236 O.2       2 UNK        -0.5319 
     62 CA         34.9719  -50.0217  -55.1570 C.3       2 UNK         0.0286 
     63 CB         34.4708  -50.7465  -56.4230 C.3       2 UNK        -0.1963 
     64 N          34.2195  -48.7875  -54.9614 N.am      2 UNK        -0.4790 
     65 C          34.6590  -47.5557  -55.2429 C.2       1 UNK         0.5024 
     66 O          35.6941  -47.3171  -55.8665 O.2       1 UNK        -0.4888 
     67 H67        33.8464  -46.4881  -50.1005 H         1 UNK         0.0892 
     68 H68        32.4352  -47.1141  -50.9411 H         1 UNK         0.0892 
     69 H69        33.8487  -48.1489  -50.7036 H         1 UNK         0.0892 
     70 H70        32.4174  -47.0958  -53.2550 H         1 UNK         0.3107 
     71 H71        34.4664  -45.5315  -54.6024 H         1 UNK         0.0773 
     72 H72        32.2616  -46.9142  -56.1651 H         1 UNK         0.0680 
     73 H73        31.7648  -45.6963  -55.0500 H         1 UNK         0.0680 
     74 H74        33.2043  -42.3685  -56.4424 H         1 UNK         0.0650 
     75 H75        33.8229  -43.2556  -55.0764 H         1 UNK         0.0650 
     76 H76        32.4400  -43.5279  -53.1472 H         1 UNK         0.1397 
     77 H77        28.2833  -42.5090  -53.2997 H         1 UNK         0.1363 
     78 H78        30.6383  -42.4958  -56.8914 H         1 UNK         0.1355 
     79 H79        27.2426  -42.7324  -55.6699 H         1 UNK         0.0707 
     80 H80        27.7227  -41.0594  -55.4940 H         1 UNK         0.0707 
     81 H81        25.9304  -41.0417  -57.1666 H         1 UNK         0.1034 
     82 H82        26.4223  -40.4919  -58.7279 H         1 UNK         0.1034 
     83 H83        24.5152  -42.1941  -58.6228 H         1 UNK         0.0482 
     84 H84        26.2687  -43.8654  -61.7821 H         1 UNK         0.3460 
     85 H85        26.2742  -44.6387  -60.2163 H         1 UNK         0.3460 
     86 H86        26.6014  -43.9289  -57.5592 H         1 UNK         0.2989 
     87 H87        25.0785  -45.8347  -56.0855 H         1 UNK         0.0559 
     88 H88        23.2837  -47.0483  -57.2946 H         1 UNK         0.0848 
     89 H89        24.6238  -48.1265  -56.9616 H         1 UNK         0.0848 
     90 H90        24.4000  -47.4757  -58.5834 H         1 UNK         0.0848 
     91 H91        27.1740  -46.4481  -56.4678 H         1 UNK         0.3144 
     92 H92        29.1322  -47.0714  -59.4193 H         1 UNK         0.0727 
     93 H93        29.3572  -45.3445  -56.8928 H         1 UNK         0.0790 
     94 H94        29.3814  -44.7353  -58.5424 H         1 UNK         0.0790 
     95 H95        30.6540  -45.8067  -57.9918 H         1 UNK         0.0790 
     96 H96        28.9856  -47.7725  -56.5298 H         1 UNK         0.3215 
     97 H97        28.6467  -51.2224  -57.2078 H         1 UNK         0.0863 
     98 H98        30.6599  -51.4173  -55.7063 H         1 UNK         0.0808 
     99 H99        31.1519  -49.7857  -56.1706 H         1 UNK         0.0808 
    100 H100       31.1017  -51.0671  -57.3702 H         1 UNK         0.0808 
    101 H101       29.0127  -49.6218  -54.8276 H         1 UNK         0.3118 
    102 H102       25.8232  -48.3499  -54.5489 H         1 UNK         0.0546 
    103 H103       26.5257  -50.8968  -52.9869 H         1 UNK         0.0828 
    104 H104       25.0513  -50.6386  -53.9076 H         1 UNK         0.0828 
    105 H105       25.3690  -49.6618  -52.4860 H         1 UNK         0.0828 
    106 H106       27.7496  -48.7919  -52.5111 H         1 UNK         0.3005 
    107 H107       30.1974  -46.4771  -53.4782 H         1 UNK         0.1257 
    108 H108       28.2083  -46.1053  -51.1816 H         1 UNK         0.0775 
    109 H109       28.3898  -44.9703  -52.4899 H         1 UNK         0.0775 
    110 H110       29.3087  -42.8037  -51.1788 H         1 UNK         0.0840 
    111 H111       31.0435  -42.6806  -51.0678 H         1 UNK         0.0840 
    112 H112       29.5969  -48.1047  -51.1270 H         1 UNK         0.2987 
    113 H113       31.3651  -49.8684  -50.7421 H         1 UNK         0.0785 
    114 H114       28.9101  -50.3863  -50.9598 H         1 UNK         0.0798 
    115 H115       29.8215  -51.8781  -50.8896 H         1 UNK         0.0798 
    116 H116       29.2131  -51.2977  -52.4356 H         1 UNK         0.0798 
    117 H117       32.0738  -50.8355  -53.3454 H         1 UNK         0.3079 
    118 H118       34.6176  -52.9025  -52.1122 H         1 UNK         0.0794 
    119 H119       33.8727  -54.6382  -53.7327 H         1 UNK         0.0786 
    120 H120       32.2466  -53.9531  -53.7560 H         1 UNK         0.0786 
    121 H121       32.8773  -54.6862  -52.2880 H         1 UNK         0.0786 
    122 H122       33.7379  -52.2558  -54.7769 H         1 UNK         0.3032 
    123 H123       36.0362  -49.8049  -55.2762 H         1 UNK         0.1094 
    124 H124       33.4081  -50.9791  -56.3749 H         1 UNK         0.0794 
    125 H125       34.6285  -50.1302  -57.3084 H         1 UNK         0.0794 
    126 H126       35.0137  -51.6787  -56.5849 H         1 UNK         0.0794 
    127 H127       33.3623  -48.8709  -54.4285 H         1 UNK         0.3016 
@<TRIPOS>BOND
     1    1    2 1    
     2    1   67 1    
     3    1   68 1    
     4    1   69 1    
     5    2    3 2    
     6    2    4 am   BACKBONE|DICT|INTERRES
     7    4    5 1    
     8    4   70 1    
     9    5    6 1    
    10    5   65 1    
    11    5   71 1    
    12    6    7 1    
    13    6   72 1    
    14    6   73 1    
    15    7    8 1    
    16    8    9 1    
    17    8   74 1    
    18    8   75 1    
    19    9   10 ar   
    20    9   14 ar   
    21   10   11 ar   
    22   10   76 1    
    23   11   12 ar   
    24   11   48 1    
    25   12   13 ar   
    26   12   77 1    
    27   13   14 ar   
    28   13   15 1    
    29   14   78 1    
    30   15   16 1    
    31   15   79 1    
    32   15   80 1    
    33   16   17 1    
    34   17   18 1    
    35   17   81 1    
    36   17   82 1    
    37   18   19 1    
    38   18   22 1    
    39   18   83 1    
    40   19   20 am   BACKBONE|DICT|INTERRES
    41   19   21 2    
    42   20   84 1    
    43   20   85 1    
    44   22   23 am   BACKBONE|DICT|INTERRES
    45   22   86 1    
    46   23   24 2    
    47   23   25 1    
    48   25   26 1    
    49   25   27 1    
    50   25   87 1    
    51   26   88 1    
    52   26   89 1    
    53   26   90 1    
    54   27   28 am   BACKBONE|DICT|INTERRES
    55   27   91 1    
    56   28   29 2    
    57   28   30 1    
    58   30   31 1    
    59   30   32 1    
    60   30   92 1    
    61   31   93 1    
    62   31   94 1    
    63   31   95 1    
    64   32   33 am   BACKBONE|DICT|INTERRES
    65   32   96 1    
    66   33   34 2    
    67   33   35 1    
    68   35   36 1    
    69   35   37 1    
    70   35   97 1    
    71   36   98 1    
    72   36   99 1    
    73   36  100 1    
    74   37   38 am   BACKBONE|DICT|INTERRES
    75   37  101 1    
    76   38   39 2    
    77   38   40 1    
    78   40   41 1    
    79   40   42 1    
    80   40  102 1    
    81   41  103 1    
    82   41  104 1    
    83   41  105 1    
    84   42   43 am   BACKBONE|DICT|INTERRES
    85   42  106 1    
    86   43   44 2    
    87   43   45 1    
    88   45   46 1    
    89   45   49 1    
    90   45  107 1    
    91   46   47 1    
    92   46  108 1    
    93   46  109 1    
    94   47   48 1    
    95   48  110 1    
    96   48  111 1    
    97   49   50 am   BACKBONE|DICT|INTERRES
    98   49  112 1    
    99   50   51 2    
   100   50   52 1    
   101   52   53 1    
   102   52   54 1    
   103   52  113 1    
   104   53  114 1    
   105   53  115 1    
   106   53  116 1    
   107   54   55 am   BACKBONE|DICT|INTERRES
   108   54  117 1    
   109   55   56 2    
   110   55   57 1    
   111   57   58 1    
   112   57   59 1    
   113   57  118 1    
   114   58  119 1    
   115   58  120 1    
   116   58  121 1    
   117   59   60 am   BACKBONE|DICT|INTERRES
   118   59  122 1    
   119   60   61 2    
   120   60   62 1    
   121   62   63 1    
   122   62   64 1    
   123   62  123 1    
   124   63  124 1    
   125   63  125 1    
   126   63  126 1    
   127   64   65 am   BACKBONE|DICT|INTERRES
   128   64  127 1    
   129   65   66 2    
@<TRIPOS>SUBSTRUCTURE
     1 UNK         1 GROUP             0       ****    0 ROOT    
