@<TRIPOS>MOLECULE
3R134
127   129    1
SMALL
USER_CHARGES


@<TRIPOS>ATOM
      1 CA         38.5978  -44.7222  -54.4159 C.3       0 UNK        -0.1968 
      2 C          37.7166  -45.9452  -54.6242 C.2       0 UNK         0.4852 
      3 O          38.2345  -47.0541  -54.7646 O.2       0 UNK        -0.5359 
      4 N          36.3911  -45.7498  -54.6478 N.am      1 UNK        -0.4300 
      5 CA         35.3891  -46.8074  -54.8405 C.3       1 UNK         0.0863 
      6 C6         33.9931  -46.2329  -55.1851 C.3       11 UNK        -0.0953 
      7 S7         33.9934  -45.1839  -56.6800 S.3       11 UNK        -0.2369 
      8 C8         33.5348  -43.5509  -56.0115 C.3       11 UNK         0.0226 
      9 C9         32.0895  -43.5225  -55.5352 C.ar      11 UNK        -0.0699 
     10 C10        31.7920  -43.6889  -54.1797 C.ar      11 UNK        -0.0804 
     11 C11        30.4665  -43.7273  -53.7433 C.ar      11 UNK        -0.0871 
     12 C12        29.4334  -43.5583  -54.6674 C.ar      11 UNK        -0.1008 
     13 C13        29.7169  -43.3549  -56.0220 C.ar      11 UNK        -0.0735 
     14 C14        31.0478  -43.3448  -56.4512 C.ar      11 UNK        -0.0945 
     15 C15        28.5844  -43.1987  -57.0259 C.3       11 UNK         0.0169 
     16 S16        27.4100  -41.8904  -56.5438 S.3       11 UNK        -0.2669 
     17 C17        25.8594  -42.6549  -57.1139 C.3       11 UNK        -0.0850 
     18 CA         25.3752  -43.7939  -56.1552 C.3       10 UNK         0.0855 
     19 C          24.0963  -43.4293  -55.3412 C.2       10 UNK         0.5543 
     20 N          23.2015  -44.3698  -55.0638 N.am      10 UNK        -0.7343 
     21 O          23.9260  -42.2868  -54.9230 O.2       10 UNK        -0.5027 
     22 N          25.3457  -45.1069  -56.8216 N.am      10 UNK        -0.4495 
     23 C          24.5890  -45.4291  -57.8796 C.2       10 UNK         0.4903 
     24 O          23.7768  -44.6623  -58.4000 O.2       10 UNK        -0.4860 
     25 CA         24.7857  -46.8447  -58.4519 C.3       9 UNK         0.0227 
     26 CB         24.1281  -47.0353  -59.8351 C.3       9 UNK        -0.1964 
     27 N          26.1923  -47.2622  -58.4854 N.am      9 UNK        -0.4231 
     28 C          27.2128  -46.6916  -59.1478 C.2       9 UNK         0.5014 
     29 O          27.1015  -45.6758  -59.8355 O.2       9 UNK        -0.5270 
     30 CA         28.6015  -47.3589  -59.0339 C.3       8 UNK         0.0284 
     31 CB         29.5964  -46.4399  -58.3045 C.3       8 UNK        -0.1977 
     32 N          28.5804  -48.6556  -58.3536 N.am      8 UNK        -0.4342 
     33 C          28.0821  -49.7934  -58.8555 C.2       8 UNK         0.5039 
     34 O          27.6737  -49.9155  -60.0103 O.2       8 UNK        -0.5547 
     35 CA         27.9610  -50.9736  -57.8769 C.3       7 UNK         0.0281 
     36 CB         29.2712  -51.7742  -57.8142 C.3       7 UNK        -0.1963 
     37 N          27.5780  -50.5354  -56.5293 N.am      7 UNK        -0.4444 
     38 C          26.3715  -50.0473  -56.2051 C.2       7 UNK         0.5104 
     39 O          25.4389  -49.9492  -57.0010 O.2       7 UNK        -0.5100 
     40 CA         26.1822  -49.5462  -54.7641 C.3       6 UNK         0.0396 
     41 CB         25.8175  -50.7105  -53.8303 C.3       6 UNK        -0.1801 
     42 N          27.3649  -48.8555  -54.2475 N.am      6 UNK        -0.4747 
     43 C          27.7752  -47.6397  -54.6412 C.2       6 UNK         0.5012 
     44 O          27.1733  -46.9426  -55.4606 O.2       6 UNK        -0.5003 
     45 CA         29.0980  -47.1342  -54.0253 C.3       5 UNK         0.0782 
     46 C46        28.7987  -46.4249  -52.6804 C.3       11 UNK        -0.0868 
     47 S47        30.2841  -45.7449  -51.8700 S.3       11 UNK        -0.2515 
     48 C48        30.1581  -43.9749  -52.2761 C.3       11 UNK         0.0199 
     49 N          30.1028  -48.2002  -53.8839 N.am      5 UNK        -0.4607 
     50 C          30.5646  -48.9732  -54.8766 C.2       4 UNK         0.5031 
     51 O          30.1937  -48.8481  -56.0432 O.2       4 UNK        -0.5119 
     52 CA         31.5636  -50.0987  -54.5371 C.3       4 UNK         0.0263 
     53 CB         32.6464  -50.2421  -55.6224 C.3       4 UNK        -0.1967 
     54 N          32.2010  -49.9970  -53.2175 N.am      4 UNK        -0.4237 
     55 C          31.6119  -50.3248  -52.0565 C.2       3 UNK         0.4908 
     56 O          30.4231  -50.6361  -51.9748 O.2       3 UNK        -0.5102 
     57 CA         32.4641  -50.3318  -50.7723 C.3       3 UNK         0.0241 
     58 CB         32.6643  -51.7730  -50.2734 C.3       3 UNK        -0.1971 
     59 N          33.7774  -49.7031  -50.9269 N.am      3 UNK        -0.4139 
     60 C          34.0042  -48.3848  -50.8742 C.2       2 UNK         0.5016 
     61 O          33.1261  -47.5484  -50.6659 O.2       2 UNK        -0.5319 
     62 CA         35.4481  -47.9033  -51.1177 C.3       2 UNK         0.0286 
     63 CB         36.5212  -49.0080  -50.9751 C.3       2 UNK        -0.1963 
     64 N          35.5682  -47.2283  -52.4156 N.am      2 UNK        -0.4790 
     65 C          35.2753  -47.7459  -53.6201 C.2       1 UNK         0.5024 
     66 O          34.9071  -48.9091  -53.7887 O.2       1 UNK        -0.4888 
     67 H67        38.0118  -43.8097  -54.3070 H         1 UNK         0.0892 
     68 H68        39.2682  -44.5947  -55.2656 H         1 UNK         0.0892 
     69 H69        39.2041  -44.8447  -53.5186 H         1 UNK         0.0892 
     70 H70        36.0266  -44.8132  -54.5538 H         1 UNK         0.3107 
     71 H71        35.7153  -47.4225  -55.6823 H         1 UNK         0.0773 
     72 H72        33.6043  -45.6753  -54.3348 H         1 UNK         0.0680 
     73 H73        33.2766  -47.0366  -55.3601 H         1 UNK         0.0680 
     74 H74        34.2150  -43.2818  -55.2021 H         1 UNK         0.0650 
     75 H75        33.6762  -42.8004  -56.7905 H         1 UNK         0.0650 
     76 H76        32.5900  -43.8191  -53.4619 H         1 UNK         0.1397 
     77 H77        28.4051  -43.5905  -54.3351 H         1 UNK         0.1363 
     78 H78        31.2766  -43.2169  -57.5005 H         1 UNK         0.1355 
     79 H79        28.0688  -44.1563  -57.1010 H         1 UNK         0.0707 
     80 H80        28.9669  -42.9764  -58.0232 H         1 UNK         0.0707 
     81 H81        26.0267  -43.0226  -58.1278 H         1 UNK         0.1034 
     82 H82        25.1102  -41.8694  -57.2277 H         1 UNK         0.1034 
     83 H83        26.1251  -43.9321  -55.3758 H         1 UNK         0.0482 
     84 H84        23.3366  -45.3123  -55.3917 H         1 UNK         0.3460 
     85 H85        22.3821  -44.1316  -54.5275 H         1 UNK         0.3460 
     86 H86        25.9733  -45.8082  -56.4346 H         1 UNK         0.2989 
     87 H87        24.2866  -47.5208  -57.7566 H         1 UNK         0.0559 
     88 H88        24.2631  -48.0533  -60.2006 H         1 UNK         0.0848 
     89 H89        24.5435  -46.3538  -60.5783 H         1 UNK         0.0848 
     90 H90        23.0544  -46.8491  -59.7876 H         1 UNK         0.0848 
     91 H91        26.4008  -48.0882  -57.9405 H         1 UNK         0.3144 
     92 H92        28.9658  -47.5159  -60.0511 H         1 UNK         0.0727 
     93 H93        30.5968  -46.8729  -58.2850 H         1 UNK         0.0790 
     94 H94        29.2947  -46.2604  -57.2725 H         1 UNK         0.0790 
     95 H95        29.6742  -45.4711  -58.7991 H         1 UNK         0.0790 
     96 H96        28.9886  -48.6815  -57.4199 H         1 UNK         0.3215 
     97 H97        27.1771  -51.6353  -58.2522 H         1 UNK         0.0863 
     98 H98        29.1784  -52.6393  -57.1575 H         1 UNK         0.0808 
     99 H99        30.1009  -51.1662  -57.4557 H         1 UNK         0.0808 
    100 H100       29.5457  -52.1461  -58.8022 H         1 UNK         0.0808 
    101 H101       28.3007  -50.5368  -55.8252 H         1 UNK         0.3118 
    102 H102       25.3493  -48.8394  -54.7646 H         1 UNK         0.0546 
    103 H103       24.9268  -51.2306  -54.1859 H         1 UNK         0.0828 
    104 H104       25.6020  -50.3572  -52.8218 H         1 UNK         0.0828 
    105 H105       26.6197  -51.4465  -53.7640 H         1 UNK         0.0828 
    106 H106       27.9232  -49.3489  -53.5645 H         1 UNK         0.3005 
    107 H107       29.5121  -46.4019  -54.7214 H         1 UNK         0.1257 
    108 H108       28.3384  -47.1226  -51.9779 H         1 UNK         0.0775 
    109 H109       28.0713  -45.6232  -52.8217 H         1 UNK         0.0775 
    110 H110       29.1669  -43.6012  -52.0143 H         1 UNK         0.0840 
    111 H111       30.8641  -43.4201  -51.6564 H         1 UNK         0.0840 
    112 H112       30.4502  -48.3607  -52.9493 H         1 UNK         0.2987 
    113 H113       30.9829  -51.0234  -54.5479 H         1 UNK         0.0785 
    114 H114       33.2127  -49.3219  -55.7557 H         1 UNK         0.0798 
    115 H115       32.2083  -50.4876  -56.5898 H         1 UNK         0.0798 
    116 H116       33.3513  -51.0374  -55.3803 H         1 UNK         0.0798 
    117 H117       33.1757  -49.7103  -53.2150 H         1 UNK         0.3079 
    118 H118       31.9017  -49.7864  -50.0113 H         1 UNK         0.0794 
    119 H119       33.2185  -52.3768  -50.9931 H         1 UNK         0.0786 
    120 H120       31.7059  -52.2660  -50.1046 H         1 UNK         0.0786 
    121 H121       33.2067  -51.7942  -49.3280 H         1 UNK         0.0786 
    122 H122       34.5552  -50.3136  -51.1330 H         1 UNK         0.3032 
    123 H123       35.6474  -47.1523  -50.3512 H         1 UNK         0.1094 
    124 H124       36.4356  -49.7798  -51.7404 H         1 UNK         0.0794 
    125 H125       37.5230  -48.5854  -51.0530 H         1 UNK         0.0794 
    126 H126       36.4579  -49.4955  -50.0011 H         1 UNK         0.0794 
    127 H127       35.8371  -46.2552  -52.3788 H         1 UNK         0.3016 
@<TRIPOS>BOND
     1    1    2 1    
     2    1   67 1    
     3    1   68 1    
     4    1   69 1    
     5    2    3 2    
     6    2    4 am   BACKBONE|DICT|INTERRES
     7    4    5 1    
     8    4   70 1    
     9    5    6 1    
    10    5   65 1    
    11    5   71 1    
    12    6    7 1    
    13    6   72 1    
    14    6   73 1    
    15    7    8 1    
    16    8    9 1    
    17    8   74 1    
    18    8   75 1    
    19    9   10 ar   
    20    9   14 ar   
    21   10   11 ar   
    22   10   76 1    
    23   11   12 ar   
    24   11   48 1    
    25   12   13 ar   
    26   12   77 1    
    27   13   14 ar   
    28   13   15 1    
    29   14   78 1    
    30   15   16 1    
    31   15   79 1    
    32   15   80 1    
    33   16   17 1    
    34   17   18 1    
    35   17   81 1    
    36   17   82 1    
    37   18   19 1    
    38   18   22 1    
    39   18   83 1    
    40   19   20 am   BACKBONE|DICT|INTERRES
    41   19   21 2    
    42   20   84 1    
    43   20   85 1    
    44   22   23 am   BACKBONE|DICT|INTERRES
    45   22   86 1    
    46   23   24 2    
    47   23   25 1    
    48   25   26 1    
    49   25   27 1    
    50   25   87 1    
    51   26   88 1    
    52   26   89 1    
    53   26   90 1    
    54   27   28 am   BACKBONE|DICT|INTERRES
    55   27   91 1    
    56   28   29 2    
    57   28   30 1    
    58   30   31 1    
    59   30   32 1    
    60   30   92 1    
    61   31   93 1    
    62   31   94 1    
    63   31   95 1    
    64   32   33 am   BACKBONE|DICT|INTERRES
    65   32   96 1    
    66   33   34 2    
    67   33   35 1    
    68   35   36 1    
    69   35   37 1    
    70   35   97 1    
    71   36   98 1    
    72   36   99 1    
    73   36  100 1    
    74   37   38 am   BACKBONE|DICT|INTERRES
    75   37  101 1    
    76   38   39 2    
    77   38   40 1    
    78   40   41 1    
    79   40   42 1    
    80   40  102 1    
    81   41  103 1    
    82   41  104 1    
    83   41  105 1    
    84   42   43 am   BACKBONE|DICT|INTERRES
    85   42  106 1    
    86   43   44 2    
    87   43   45 1    
    88   45   46 1    
    89   45   49 1    
    90   45  107 1    
    91   46   47 1    
    92   46  108 1    
    93   46  109 1    
    94   47   48 1    
    95   48  110 1    
    96   48  111 1    
    97   49   50 am   BACKBONE|DICT|INTERRES
    98   49  112 1    
    99   50   51 2    
   100   50   52 1    
   101   52   53 1    
   102   52   54 1    
   103   52  113 1    
   104   53  114 1    
   105   53  115 1    
   106   53  116 1    
   107   54   55 am   BACKBONE|DICT|INTERRES
   108   54  117 1    
   109   55   56 2    
   110   55   57 1    
   111   57   58 1    
   112   57   59 1    
   113   57  118 1    
   114   58  119 1    
   115   58  120 1    
   116   58  121 1    
   117   59   60 am   BACKBONE|DICT|INTERRES
   118   59  122 1    
   119   60   61 2    
   120   60   62 1    
   121   62   63 1    
   122   62   64 1    
   123   62  123 1    
   124   63  124 1    
   125   63  125 1    
   126   63  126 1    
   127   64   65 am   BACKBONE|DICT|INTERRES
   128   64  127 1    
   129   65   66 2    
@<TRIPOS>SUBSTRUCTURE
     1 UNK         1 GROUP             0       ****    0 ROOT    
