@<TRIPOS>MOLECULE
3R134
127   129    1
SMALL
USER_CHARGES


@<TRIPOS>ATOM
      1 CA         31.8518  -41.2100  -52.2785 C.3       0 UNK        -0.1968 
      2 C          32.4103  -42.5991  -52.0102 C.2       0 UNK         0.4852 
      3 O          32.4621  -43.0290  -50.8567 O.2       0 UNK        -0.5359 
      4 N          32.8129  -43.3155  -53.0671 N.am      1 UNK        -0.4300 
      5 CA         33.3780  -44.6687  -53.0362 C.3       1 UNK         0.0863 
      6 C6         34.3009  -44.9378  -54.2549 C.3       11 UNK        -0.0953 
      7 S7         35.5758  -43.6512  -54.5643 S.3       11 UNK        -0.2369 
      8 C8         34.7820  -42.3831  -55.6334 C.3       11 UNK         0.0226 
      9 C9         33.6377  -42.9273  -56.4765 C.ar      11 UNK        -0.0699 
     10 C10        33.8960  -43.8613  -57.4829 C.ar      11 UNK        -0.0804 
     11 C11        32.8417  -44.5118  -58.1283 C.ar      11 UNK        -0.0871 
     12 C12        31.5222  -44.1814  -57.8044 C.ar      11 UNK        -0.1008 
     13 C13        31.2545  -43.2320  -56.8147 C.ar      11 UNK        -0.0735 
     14 C14        32.3154  -42.5840  -56.1777 C.ar      11 UNK        -0.0945 
     15 C15        29.8272  -42.9781  -56.3578 C.3       11 UNK         0.0169 
     16 S16        29.4034  -44.1342  -55.0174 S.3       11 UNK        -0.2669 
     17 C17        27.8017  -43.4756  -54.4480 C.3       11 UNK        -0.0850 
     18 CA         27.0311  -44.5031  -53.5747 C.3       10 UNK         0.0855 
     19 C          25.8005  -43.8540  -52.8788 C.2       10 UNK         0.5543 
     20 N          24.5923  -44.3834  -53.0297 N.am      10 UNK        -0.7343 
     21 O          25.9472  -42.8582  -52.1749 O.2       10 UNK        -0.5027 
     22 N          26.6994  -45.7125  -54.3436 N.am      10 UNK        -0.4495 
     23 C          26.7924  -46.9747  -53.9150 C.2       10 UNK         0.4903 
     24 O          27.1994  -47.2978  -52.7991 O.2       10 UNK        -0.4860 
     25 CA         26.4005  -48.0857  -54.9039 C.3       9 UNK         0.0227 
     26 CB         24.9202  -48.4810  -54.7490 C.3       9 UNK        -0.1964 
     27 N          26.7478  -47.8027  -56.3023 N.am      9 UNK        -0.4231 
     28 C          26.2329  -46.9012  -57.1520 C.2       9 UNK         0.5014 
     29 O          25.3343  -46.1121  -56.8586 O.2       9 UNK        -0.5270 
     30 CA         26.8595  -46.8407  -58.5534 C.3       8 UNK         0.0284 
     31 CB         28.0435  -45.8596  -58.5566 C.3       8 UNK        -0.1977 
     32 N          27.3202  -48.1606  -58.9904 N.am      8 UNK        -0.4342 
     33 C          26.5718  -49.0436  -59.6660 C.2       8 UNK         0.5039 
     34 O          25.4384  -48.8043  -60.0846 O.2       8 UNK        -0.5547 
     35 CA         27.1853  -50.4348  -59.9165 C.3       7 UNK         0.0281 
     36 CB         27.9536  -50.4520  -61.2479 C.3       7 UNK        -0.1963 
     37 N          28.0735  -50.8765  -58.8373 N.am      7 UNK        -0.4444 
     38 C          27.6683  -51.2002  -57.6008 C.2       7 UNK         0.5104 
     39 O          26.4874  -51.2447  -57.2572 O.2       7 UNK        -0.5100 
     40 CA         28.7638  -51.4971  -56.5581 C.3       6 UNK         0.0396 
     41 CB         28.9948  -53.0119  -56.4460 C.3       6 UNK        -0.1801 
     42 N          30.0521  -50.8292  -56.7928 N.am      6 UNK        -0.4747 
     43 C          30.2401  -49.5066  -56.9096 C.2       6 UNK         0.5012 
     44 O          29.3170  -48.6923  -56.9148 O.2       6 UNK        -0.5003 
     45 CA         31.6960  -49.0190  -57.0135 C.3       5 UNK         0.0782 
     46 C46        31.7922  -47.5705  -57.5531 C.3       11 UNK        -0.0868 
     47 S47        33.4578  -47.1925  -58.1887 S.3       11 UNK        -0.2515 
     48 C48        33.1368  -45.6440  -59.0970 C.3       11 UNK         0.0199 
     49 N          32.3013  -49.1563  -55.6870 N.am      5 UNK        -0.4607 
     50 C          32.9005  -50.2709  -55.2494 C.2       4 UNK         0.5031 
     51 O          33.1501  -51.2399  -55.9675 O.2       4 UNK        -0.5119 
     52 CA         33.2010  -50.3474  -53.7449 C.3       4 UNK         0.0263 
     53 CB         34.3805  -49.4373  -53.3647 C.3       4 UNK        -0.1967 
     54 N          32.0274  -50.0120  -52.9336 N.am      4 UNK        -0.4237 
     55 C          30.8842  -50.7121  -52.8831 C.2       3 UNK         0.4908 
     56 O          30.7145  -51.7721  -53.4849 O.2       3 UNK        -0.5102 
     57 CA         29.7194  -50.1582  -52.0332 C.3       3 UNK         0.0241 
     58 CB         29.7192  -50.7849  -50.6254 C.3       3 UNK        -0.1971 
     59 N          29.6256  -48.6912  -51.9655 N.am      3 UNK        -0.4139 
     60 C          30.4976  -47.8221  -51.4402 C.2       2 UNK         0.5016 
     61 O          31.5275  -48.1457  -50.8426 O.2       2 UNK        -0.5319 
     62 CA         30.1828  -46.3366  -51.6626 C.3       2 UNK         0.0286 
     63 CB         29.4242  -45.7490  -50.4628 C.3       2 UNK        -0.1963 
     64 N          31.3856  -45.5437  -51.9101 N.am      2 UNK        -0.4790 
     65 C          32.2452  -45.7179  -52.9238 C.2       1 UNK         0.5024 
     66 O          32.1409  -46.6234  -53.7575 O.2       1 UNK        -0.4888 
     67 H67        32.1851  -40.5147  -51.5084 H         1 UNK         0.0892 
     68 H68        30.7623  -41.2356  -52.2669 H         1 UNK         0.0892 
     69 H69        32.1778  -40.8202  -53.2421 H         1 UNK         0.0892 
     70 H70        32.7030  -42.9398  -53.9964 H         1 UNK         0.3107 
     71 H71        33.9901  -44.7637  -52.1368 H         1 UNK         0.0773 
     72 H72        33.7160  -45.1203  -55.1548 H         1 UNK         0.0680 
     73 H73        34.8390  -45.8724  -54.0883 H         1 UNK         0.0680 
     74 H74        34.4339  -41.5663  -54.9995 H         1 UNK         0.0650 
     75 H75        35.5399  -41.9524  -56.2891 H         1 UNK         0.0650 
     76 H76        34.9165  -44.1492  -57.6965 H         1 UNK         0.1397 
     77 H77        30.7052  -44.7065  -58.2777 H         1 UNK         0.1363 
     78 H78        32.1023  -41.8573  -55.4074 H         1 UNK         0.1355 
     79 H79        29.1307  -43.1028  -57.1879 H         1 UNK         0.0707 
     80 H80        29.7192  -41.9507  -56.0066 H         1 UNK         0.0707 
     81 H81        27.2015  -43.1822  -55.3112 H         1 UNK         0.1034 
     82 H82        28.0034  -42.5612  -53.8866 H         1 UNK         0.1034 
     83 H83        27.6924  -44.7856  -52.7551 H         1 UNK         0.0482 
     84 H84        24.4634  -45.2022  -53.6019 H         1 UNK         0.3460 
     85 H85        23.8037  -43.9575  -52.5687 H         1 UNK         0.3460 
     86 H86        26.3048  -45.5649  -55.2670 H         1 UNK         0.2989 
     87 H87        26.9982  -48.9588  -54.6365 H         1 UNK         0.0559 
     88 H88        24.2471  -47.6571  -54.9867 H         1 UNK         0.0848 
     89 H89        24.7058  -48.7884  -53.7246 H         1 UNK         0.0848 
     90 H90        24.6672  -49.3192  -55.3986 H         1 UNK         0.0848 
     91 H91        27.5846  -48.2873  -56.6204 H         1 UNK         0.3144 
     92 H92        26.1038  -46.4661  -59.2473 H         1 UNK         0.0727 
     93 H93        27.7123  -44.8543  -58.2937 H         1 UNK         0.0790 
     94 H94        28.5102  -45.8010  -59.5399 H         1 UNK         0.0790 
     95 H95        28.8094  -46.1467  -57.8348 H         1 UNK         0.0790 
     96 H96        28.2203  -48.4605  -58.6355 H         1 UNK         0.3215 
     97 H97        26.3614  -51.1485  -59.9883 H         1 UNK         0.0863 
     98 H98        28.3262  -51.4502  -61.4789 H         1 UNK         0.0808 
     99 H99        28.8040  -49.7691  -61.2350 H         1 UNK         0.0808 
    100 H100       27.3073  -50.1509  -62.0737 H         1 UNK         0.0808 
    101 H101       29.0640  -50.8941  -59.0319 H         1 UNK         0.3118 
    102 H102       28.3930  -51.1402  -55.5949 H         1 UNK         0.0546 
    103 H103       28.0607  -53.5360  -56.2385 H         1 UNK         0.0828 
    104 H104       29.6824  -53.2496  -55.6340 H         1 UNK         0.0828 
    105 H105       29.4048  -53.4276  -57.3671 H         1 UNK         0.0828 
    106 H106       30.8735  -51.4197  -56.7548 H         1 UNK         0.3005 
    107 H107       32.1993  -49.6752  -57.7278 H         1 UNK         0.1257 
    108 H108       31.5227  -46.8493  -56.7785 H         1 UNK         0.0775 
    109 H109       31.0927  -47.4162  -58.3771 H         1 UNK         0.0775 
    110 H110       34.0116  -45.3957  -59.6999 H         1 UNK         0.0840 
    111 H111       32.3117  -45.7845  -59.7971 H         1 UNK         0.0840 
    112 H112       32.1305  -48.3995  -55.0335 H         1 UNK         0.2987 
    113 H113       33.4792  -51.3778  -53.5135 H         1 UNK         0.0785 
    114 H114       35.2703  -49.6926  -53.9416 H         1 UNK         0.0798 
    115 H115       34.6370  -49.5417  -52.3103 H         1 UNK         0.0798 
    116 H116       34.1621  -48.3860  -53.5524 H         1 UNK         0.0798 
    117 H117       32.0858  -49.1804  -52.3522 H         1 UNK         0.3079 
    118 H118       28.8033  -50.4791  -52.5320 H         1 UNK         0.0794 
    119 H119       30.6175  -50.5284  -50.0632 H         1 UNK         0.0786 
    120 H120       29.6761  -51.8733  -50.6851 H         1 UNK         0.0786 
    121 H121       28.8557  -50.4579  -50.0461 H         1 UNK         0.0786 
    122 H122       28.7908  -48.2962  -52.3926 H         1 UNK         0.3032 
    123 H123       29.5648  -46.2431  -52.5569 H         1 UNK         0.1094 
    124 H124       28.4914  -46.2882  -50.2910 H         1 UNK         0.0794 
    125 H125       30.0126  -45.8097  -49.5464 H         1 UNK         0.0794 
    126 H126       29.1662  -44.7029  -50.6288 H         1 UNK         0.0794 
    127 H127       31.5705  -44.7726  -51.2764 H         1 UNK         0.3016 
@<TRIPOS>BOND
     1    1    2 1    
     2    1   67 1    
     3    1   68 1    
     4    1   69 1    
     5    2    3 2    
     6    2    4 am   BACKBONE|DICT|INTERRES
     7    4    5 1    
     8    4   70 1    
     9    5    6 1    
    10    5   65 1    
    11    5   71 1    
    12    6    7 1    
    13    6   72 1    
    14    6   73 1    
    15    7    8 1    
    16    8    9 1    
    17    8   74 1    
    18    8   75 1    
    19    9   10 ar   
    20    9   14 ar   
    21   10   11 ar   
    22   10   76 1    
    23   11   12 ar   
    24   11   48 1    
    25   12   13 ar   
    26   12   77 1    
    27   13   14 ar   
    28   13   15 1    
    29   14   78 1    
    30   15   16 1    
    31   15   79 1    
    32   15   80 1    
    33   16   17 1    
    34   17   18 1    
    35   17   81 1    
    36   17   82 1    
    37   18   19 1    
    38   18   22 1    
    39   18   83 1    
    40   19   20 am   BACKBONE|DICT|INTERRES
    41   19   21 2    
    42   20   84 1    
    43   20   85 1    
    44   22   23 am   BACKBONE|DICT|INTERRES
    45   22   86 1    
    46   23   24 2    
    47   23   25 1    
    48   25   26 1    
    49   25   27 1    
    50   25   87 1    
    51   26   88 1    
    52   26   89 1    
    53   26   90 1    
    54   27   28 am   BACKBONE|DICT|INTERRES
    55   27   91 1    
    56   28   29 2    
    57   28   30 1    
    58   30   31 1    
    59   30   32 1    
    60   30   92 1    
    61   31   93 1    
    62   31   94 1    
    63   31   95 1    
    64   32   33 am   BACKBONE|DICT|INTERRES
    65   32   96 1    
    66   33   34 2    
    67   33   35 1    
    68   35   36 1    
    69   35   37 1    
    70   35   97 1    
    71   36   98 1    
    72   36   99 1    
    73   36  100 1    
    74   37   38 am   BACKBONE|DICT|INTERRES
    75   37  101 1    
    76   38   39 2    
    77   38   40 1    
    78   40   41 1    
    79   40   42 1    
    80   40  102 1    
    81   41  103 1    
    82   41  104 1    
    83   41  105 1    
    84   42   43 am   BACKBONE|DICT|INTERRES
    85   42  106 1    
    86   43   44 2    
    87   43   45 1    
    88   45   46 1    
    89   45   49 1    
    90   45  107 1    
    91   46   47 1    
    92   46  108 1    
    93   46  109 1    
    94   47   48 1    
    95   48  110 1    
    96   48  111 1    
    97   49   50 am   BACKBONE|DICT|INTERRES
    98   49  112 1    
    99   50   51 2    
   100   50   52 1    
   101   52   53 1    
   102   52   54 1    
   103   52  113 1    
   104   53  114 1    
   105   53  115 1    
   106   53  116 1    
   107   54   55 am   BACKBONE|DICT|INTERRES
   108   54  117 1    
   109   55   56 2    
   110   55   57 1    
   111   57   58 1    
   112   57   59 1    
   113   57  118 1    
   114   58  119 1    
   115   58  120 1    
   116   58  121 1    
   117   59   60 am   BACKBONE|DICT|INTERRES
   118   59  122 1    
   119   60   61 2    
   120   60   62 1    
   121   62   63 1    
   122   62   64 1    
   123   62  123 1    
   124   63  124 1    
   125   63  125 1    
   126   63  126 1    
   127   64   65 am   BACKBONE|DICT|INTERRES
   128   64  127 1    
   129   65   66 2    
@<TRIPOS>SUBSTRUCTURE
     1 UNK         1 GROUP             0       ****    0 ROOT    
