@<TRIPOS>MOLECULE
3R134
127   129    1
SMALL
USER_CHARGES


@<TRIPOS>ATOM
      1 CA         30.5076  -45.1475  -52.5925 C.3       0 UNK        -0.1968 
      2 C          31.8700  -45.4654  -51.9962 C.2       0 UNK         0.4852 
      3 O          31.9970  -46.4226  -51.2319 O.2       0 UNK        -0.5359 
      4 N          32.8845  -44.6588  -52.3344 N.am      1 UNK        -0.4300 
      5 CA         34.2056  -44.6258  -51.6910 C.3       1 UNK         0.0863 
      6 C6         35.0914  -43.4772  -52.2298 C.3       11 UNK        -0.0953 
      7 S7         34.2691  -41.8510  -52.1472 S.3       11 UNK        -0.2369 
      8 C8         34.2273  -41.3706  -53.9018 C.3       11 UNK         0.0226 
      9 C9         33.1624  -42.1198  -54.6923 C.ar      11 UNK        -0.0699 
     10 C10        33.5043  -43.2254  -55.4796 C.ar      11 UNK        -0.0804 
     11 C11        32.5391  -43.8575  -56.2703 C.ar      11 UNK        -0.0871 
     12 C12        31.2331  -43.3624  -56.2861 C.ar      11 UNK        -0.1008 
     13 C13        30.8687  -42.2871  -55.4737 C.ar      11 UNK        -0.0735 
     14 C14        31.8379  -41.6702  -54.6768 C.ar      11 UNK        -0.0945 
     15 C15        29.4402  -41.7643  -55.4920 C.3       11 UNK         0.0169 
     16 S16        28.3594  -42.6404  -54.3124 S.3       11 UNK        -0.2669 
     17 C17        27.9045  -44.1695  -55.2075 C.3       11 UNK        -0.0850 
     18 CA         26.5805  -44.0212  -56.0029 C.3       10 UNK         0.0855 
     19 C          26.7972  -43.3362  -57.3781 C.2       10 UNK         0.5543 
     20 N          26.2621  -42.1391  -57.5745 N.am      10 UNK        -0.7343 
     21 O          27.4814  -43.8687  -58.2489 O.2       10 UNK        -0.5027 
     22 N          25.9126  -45.3163  -56.1795 N.am      10 UNK        -0.4495 
     23 C          24.6005  -45.4466  -56.4229 C.2       10 UNK         0.4903 
     24 O          23.8087  -44.5020  -56.4183 O.2       10 UNK        -0.4860 
     25 CA         24.0889  -46.8713  -56.7076 C.3       9 UNK         0.0227 
     26 CB         22.6410  -46.9039  -57.2426 C.3       9 UNK        -0.1964 
     27 N          24.9880  -47.6331  -57.5799 N.am      9 UNK        -0.4231 
     28 C          25.3493  -47.3480  -58.8428 C.2       9 UNK         0.5014 
     29 O          24.9067  -46.3938  -59.4834 O.2       9 UNK        -0.5270 
     30 CA         26.3866  -48.2722  -59.5128 C.3       8 UNK         0.0284 
     31 CB         27.6377  -47.4774  -59.9285 C.3       8 UNK        -0.1977 
     32 N          26.7949  -49.3767  -58.6412 N.am      8 UNK        -0.4342 
     33 C          26.1824  -50.5673  -58.5695 C.2       8 UNK         0.5039 
     34 O          25.2653  -50.9109  -59.3156 O.2       8 UNK        -0.5547 
     35 CA         26.6429  -51.5249  -57.4540 C.3       7 UNK         0.0281 
     36 CB         27.6464  -52.5500  -58.0054 C.3       7 UNK        -0.1963 
     37 N          27.2278  -50.8261  -56.3024 N.am      7 UNK        -0.4444 
     38 C          26.5263  -50.0483  -55.4608 C.2       7 UNK         0.5104 
     39 O          25.3095  -49.8896  -55.5460 O.2       7 UNK        -0.5100 
     40 CA         27.3005  -49.2560  -54.3902 C.3       6 UNK         0.0396 
     41 CB         27.2756  -50.0037  -53.0494 C.3       6 UNK        -0.1801 
     42 N          28.6858  -48.9662  -54.7688 N.am      6 UNK        -0.4747 
     43 C          29.0466  -48.2140  -55.8221 C.2       6 UNK         0.5012 
     44 O          28.2317  -47.5975  -56.5109 O.2       6 UNK        -0.5003 
     45 CA         30.5474  -48.1637  -56.1987 C.3       5 UNK         0.0782 
     46 C46        31.1489  -46.8198  -55.7332 C.3       11 UNK        -0.0868 
     47 S47        32.9113  -46.6031  -56.1533 S.3       11 UNK        -0.2515 
     48 C48        32.9057  -45.0626  -57.1254 C.3       11 UNK         0.0199 
     49 N          31.3199  -49.2954  -55.6749 N.am      5 UNK        -0.4607 
     50 C          31.0927  -50.5976  -55.8922 C.2       4 UNK         0.5031 
     51 O          30.2123  -51.0212  -56.6397 O.2       4 UNK        -0.5119 
     52 CA         31.9437  -51.5905  -55.0793 C.3       4 UNK         0.0263 
     53 CB         33.1311  -52.0876  -55.9179 C.3       4 UNK        -0.1967 
     54 N          32.4448  -51.0369  -53.8145 N.am      4 UNK        -0.4237 
     55 C          31.6987  -50.5557  -52.8099 C.2       3 UNK         0.4908 
     56 O          30.4682  -50.5659  -52.8149 O.2       3 UNK        -0.5102 
     57 CA         32.4370  -49.8891  -51.6358 C.3       3 UNK         0.0241 
     58 CB         32.9687  -50.9353  -50.6368 C.3       3 UNK        -0.1971 
     59 N          33.4805  -48.9363  -52.0494 N.am      3 UNK        -0.4139 
     60 C          34.6467  -49.1831  -52.6697 C.2       2 UNK         0.5016 
     61 O          35.0252  -50.3161  -52.9722 O.2       2 UNK        -0.5319 
     62 CA         35.5215  -47.9819  -53.0743 C.3       2 UNK         0.0286 
     63 CB         35.9581  -48.0884  -54.5465 C.3       2 UNK        -0.1963 
     64 N          34.8555  -46.6918  -52.8634 N.am      2 UNK        -0.4790 
     65 C          34.9818  -45.9565  -51.7499 C.2       1 UNK         0.5024 
     66 O          35.6729  -46.2920  -50.7871 O.2       1 UNK        -0.4888 
     67 H67        30.6014  -44.6419  -53.5532 H         1 UNK         0.0892 
     68 H68        29.9502  -44.4958  -51.9204 H         1 UNK         0.0892 
     69 H69        29.9256  -46.0575  -52.7357 H         1 UNK         0.0892 
     70 H70        32.7133  -43.9002  -52.9812 H         1 UNK         0.3107 
     71 H71        34.0195  -44.4272  -50.6332 H         1 UNK         0.0773 
     72 H72        35.4048  -43.6813  -53.2547 H         1 UNK         0.0680 
     73 H73        36.0112  -43.4052  -51.6460 H         1 UNK         0.0680 
     74 H74        34.0302  -40.2991  -53.9606 H         1 UNK         0.0650 
     75 H75        35.2131  -41.5165  -54.3461 H         1 UNK         0.0650 
     76 H76        34.5240  -43.5852  -55.4939 H         1 UNK         0.1397 
     77 H77        30.4979  -43.8160  -56.9352 H         1 UNK         0.1363 
     78 H78        31.5682  -40.8204  -54.0643 H         1 UNK         0.1355 
     79 H79        29.0323  -41.8243  -56.5007 H         1 UNK         0.0707 
     80 H80        29.4362  -40.7039  -55.2355 H         1 UNK         0.0707 
     81 H81        27.7867  -44.9408  -54.4445 H         1 UNK         0.1034 
     82 H82        28.7165  -44.5199  -55.8410 H         1 UNK         0.1034 
     83 H83        25.9117  -43.3975  -55.4050 H         1 UNK         0.0482 
     84 H84        25.7009  -41.6988  -56.8620 H         1 UNK         0.3460 
     85 H85        26.4035  -41.6770  -58.4588 H         1 UNK         0.3460 
     86 H86        26.5153  -46.1250  -56.2712 H         1 UNK         0.2989 
     87 H87        24.0915  -47.3873  -55.7466 H         1 UNK         0.0559 
     88 H88        22.3044  -47.9264  -57.4133 H         1 UNK         0.0848 
     89 H89        22.5416  -46.3564  -58.1803 H         1 UNK         0.0848 
     90 H90        21.9507  -46.4521  -56.5292 H         1 UNK         0.0848 
     91 H91        25.3825  -48.4622  -57.1535 H         1 UNK         0.3144 
     92 H92        25.9268  -48.6750  -60.4177 H         1 UNK         0.0727 
     93 H93        28.3817  -48.1211  -60.3980 H         1 UNK         0.0790 
     94 H94        28.1073  -46.9825  -59.0778 H         1 UNK         0.0790 
     95 H95        27.3827  -46.6999  -60.6497 H         1 UNK         0.0790 
     96 H96        27.5233  -49.1648  -57.9714 H         1 UNK         0.3215 
     97 H97        25.7621  -52.0677  -57.1038 H         1 UNK         0.0863 
     98 H98        27.9761  -53.2426  -57.2308 H         1 UNK         0.0808 
     99 H99        28.5304  -52.0668  -58.4230 H         1 UNK         0.0808 
    100 H100       27.1961  -53.1441  -58.8018 H         1 UNK         0.0808 
    101 H101       28.2362  -50.8913  -56.1966 H         1 UNK         0.3118 
    102 H102       26.7890  -48.3006  -54.2550 H         1 UNK         0.0546 
    103 H103       26.2510  -50.1782  -52.7183 H         1 UNK         0.0828 
    104 H104       27.7766  -49.4338  -52.2667 H         1 UNK         0.0828 
    105 H105       27.7651  -50.9759  -53.1208 H         1 UNK         0.0828 
    106 H106       29.4048  -49.4465  -54.2367 H         1 UNK         0.3005 
    107 H107       30.5999  -48.2107  -57.2886 H         1 UNK         0.1257 
    108 H108       31.0720  -46.7428  -54.6515 H         1 UNK         0.0775 
    109 H109       30.5720  -45.9948  -56.1472 H         1 UNK         0.0775 
    110 H110       33.8963  -44.9157  -57.5584 H         1 UNK         0.0840 
    111 H111       32.2195  -45.1660  -57.9676 H         1 UNK         0.0840 
    112 H112       32.0817  -49.0508  -55.0609 H         1 UNK         0.2987 
    113 H113       31.3065  -52.4435  -54.8374 H         1 UNK         0.0785 
    114 H114       33.8190  -51.2771  -56.1631 H         1 UNK         0.0798 
    115 H115       32.7904  -52.5239  -56.8582 H         1 UNK         0.0798 
    116 H116       33.6946  -52.8574  -55.3903 H         1 UNK         0.0798 
    117 H117       33.4550  -50.9723  -53.7015 H         1 UNK         0.3079 
    118 H118       31.6950  -49.2878  -51.1075 H         1 UNK         0.0794 
    119 H119       33.7005  -51.6048  -51.0895 H         1 UNK         0.0786 
    120 H120       32.1557  -51.5563  -50.2582 H         1 UNK         0.0786 
    121 H121       33.4384  -50.4575  -49.7770 H         1 UNK         0.0786 
    122 H122       33.2500  -47.9658  -51.8579 H         1 UNK         0.3032 
    123 H123       36.4242  -48.0329  -52.4610 H         1 UNK         0.1094 
    124 H124       35.1072  -48.2055  -55.2162 H         1 UNK         0.0794 
    125 H125       36.5199  -47.2094  -54.8629 H         1 UNK         0.0794 
    126 H126       36.6045  -48.9538  -54.6982 H         1 UNK         0.0794 
    127 H127       34.2577  -46.3550  -53.6062 H         1 UNK         0.3016 
@<TRIPOS>BOND
     1    1    2 1    
     2    1   67 1    
     3    1   68 1    
     4    1   69 1    
     5    2    3 2    
     6    2    4 am   BACKBONE|DICT|INTERRES
     7    4    5 1    
     8    4   70 1    
     9    5    6 1    
    10    5   65 1    
    11    5   71 1    
    12    6    7 1    
    13    6   72 1    
    14    6   73 1    
    15    7    8 1    
    16    8    9 1    
    17    8   74 1    
    18    8   75 1    
    19    9   10 ar   
    20    9   14 ar   
    21   10   11 ar   
    22   10   76 1    
    23   11   12 ar   
    24   11   48 1    
    25   12   13 ar   
    26   12   77 1    
    27   13   14 ar   
    28   13   15 1    
    29   14   78 1    
    30   15   16 1    
    31   15   79 1    
    32   15   80 1    
    33   16   17 1    
    34   17   18 1    
    35   17   81 1    
    36   17   82 1    
    37   18   19 1    
    38   18   22 1    
    39   18   83 1    
    40   19   20 am   BACKBONE|DICT|INTERRES
    41   19   21 2    
    42   20   84 1    
    43   20   85 1    
    44   22   23 am   BACKBONE|DICT|INTERRES
    45   22   86 1    
    46   23   24 2    
    47   23   25 1    
    48   25   26 1    
    49   25   27 1    
    50   25   87 1    
    51   26   88 1    
    52   26   89 1    
    53   26   90 1    
    54   27   28 am   BACKBONE|DICT|INTERRES
    55   27   91 1    
    56   28   29 2    
    57   28   30 1    
    58   30   31 1    
    59   30   32 1    
    60   30   92 1    
    61   31   93 1    
    62   31   94 1    
    63   31   95 1    
    64   32   33 am   BACKBONE|DICT|INTERRES
    65   32   96 1    
    66   33   34 2    
    67   33   35 1    
    68   35   36 1    
    69   35   37 1    
    70   35   97 1    
    71   36   98 1    
    72   36   99 1    
    73   36  100 1    
    74   37   38 am   BACKBONE|DICT|INTERRES
    75   37  101 1    
    76   38   39 2    
    77   38   40 1    
    78   40   41 1    
    79   40   42 1    
    80   40  102 1    
    81   41  103 1    
    82   41  104 1    
    83   41  105 1    
    84   42   43 am   BACKBONE|DICT|INTERRES
    85   42  106 1    
    86   43   44 2    
    87   43   45 1    
    88   45   46 1    
    89   45   49 1    
    90   45  107 1    
    91   46   47 1    
    92   46  108 1    
    93   46  109 1    
    94   47   48 1    
    95   48  110 1    
    96   48  111 1    
    97   49   50 am   BACKBONE|DICT|INTERRES
    98   49  112 1    
    99   50   51 2    
   100   50   52 1    
   101   52   53 1    
   102   52   54 1    
   103   52  113 1    
   104   53  114 1    
   105   53  115 1    
   106   53  116 1    
   107   54   55 am   BACKBONE|DICT|INTERRES
   108   54  117 1    
   109   55   56 2    
   110   55   57 1    
   111   57   58 1    
   112   57   59 1    
   113   57  118 1    
   114   58  119 1    
   115   58  120 1    
   116   58  121 1    
   117   59   60 am   BACKBONE|DICT|INTERRES
   118   59  122 1    
   119   60   61 2    
   120   60   62 1    
   121   62   63 1    
   122   62   64 1    
   123   62  123 1    
   124   63  124 1    
   125   63  125 1    
   126   63  126 1    
   127   64   65 am   BACKBONE|DICT|INTERRES
   128   64  127 1    
   129   65   66 2    
@<TRIPOS>SUBSTRUCTURE
     1 UNK         1 GROUP             0       ****    0 ROOT    
