@<TRIPOS>MOLECULE
3R134
127   129    1
SMALL
USER_CHARGES


@<TRIPOS>ATOM
      1 CA         37.9663  -44.8137  -50.2393 C.3       0 UNK        -0.1968 
      2 C          37.4149  -45.6533  -51.3823 C.2       0 UNK         0.4852 
      3 O          38.0774  -46.5942  -51.8218 O.2       0 UNK        -0.5359 
      4 N          36.2109  -45.3166  -51.8669 N.am      1 UNK        -0.4300 
      5 CA         35.5077  -46.0272  -52.9445 C.3       1 UNK         0.0863 
      6 C6         34.3274  -45.1849  -53.5061 C.3       11 UNK        -0.0953 
      7 S7         34.2628  -45.1729  -55.3295 S.3       11 UNK        -0.2369 
      8 C8         33.6134  -43.5037  -55.6763 C.3       11 UNK         0.0226 
      9 C9         32.1036  -43.4316  -55.4881 C.ar      11 UNK        -0.0699 
     10 C10        31.5580  -43.3739  -54.2030 C.ar      11 UNK        -0.0804 
     11 C11        30.1742  -43.3578  -54.0180 C.ar      11 UNK        -0.0871 
     12 C12        29.3306  -43.3484  -55.1314 C.ar      11 UNK        -0.1008 
     13 C13        29.8615  -43.3816  -56.4239 C.ar      11 UNK        -0.0735 
     14 C14        31.2493  -43.4307  -56.5964 C.ar      11 UNK        -0.0945 
     15 C15        28.9318  -43.4221  -57.6266 C.3       11 UNK         0.0169 
     16 S16        27.8318  -41.9731  -57.7038 S.3       11 UNK        -0.2669 
     17 C17        26.8344  -42.3825  -59.1771 C.3       11 UNK        -0.0850 
     18 CA         25.4599  -43.0225  -58.8409 C.3       10 UNK         0.0855 
     19 C          24.6219  -43.1953  -60.1431 C.2       10 UNK         0.5543 
     20 N          24.4328  -44.4046  -60.6602 N.am      10 UNK        -0.7343 
     21 O          24.1374  -42.2093  -60.6927 O.2       10 UNK        -0.5027 
     22 N          25.6110  -44.2574  -58.0556 N.am      10 UNK        -0.4495 
     23 C          24.6221  -44.9157  -57.4379 C.2       10 UNK         0.4903 
     24 O          23.4803  -44.4687  -57.3188 O.2       10 UNK        -0.4860 
     25 CA         24.9602  -46.3102  -56.8627 C.3       9 UNK         0.0227 
     26 CB         23.7706  -47.2862  -56.9722 C.3       9 UNK        -0.1964 
     27 N          26.1753  -46.9336  -57.4134 N.am      9 UNK        -0.4231 
     28 C          26.4408  -47.2078  -58.7020 C.2       9 UNK         0.5014 
     29 O          25.6896  -46.9192  -59.6352 O.2       9 UNK        -0.5270 
     30 CA         27.7864  -47.8813  -59.0105 C.3       8 UNK         0.0284 
     31 CB         28.9224  -46.8469  -59.0413 C.3       8 UNK        -0.1977 
     32 N          28.1144  -48.9534  -58.0686 N.am      8 UNK        -0.4342 
     33 C          27.5439  -50.1670  -58.0993 C.2       8 UNK         0.5039 
     34 O          26.6933  -50.5037  -58.9245 O.2       8 UNK        -0.5547 
     35 CA         28.0017  -51.1867  -57.0436 C.3       7 UNK         0.0281 
     36 CB         29.3719  -51.7753  -57.4140 C.3       7 UNK        -0.1963 
     37 N          28.0458  -50.6270  -55.6921 N.am      7 UNK        -0.4444 
     38 C          26.9633  -50.2483  -54.9973 C.2       7 UNK         0.5104 
     39 O          25.8077  -50.3562  -55.4082 O.2       7 UNK        -0.5100 
     40 CA         27.2084  -49.6391  -53.6071 C.3       6 UNK         0.0396 
     41 CB         27.3428  -50.7427  -52.5459 C.3       6 UNK        -0.1801 
     42 N          28.3855  -48.7710  -53.5607 N.am      6 UNK        -0.4747 
     43 C          28.5072  -47.6120  -54.2247 C.2       6 UNK         0.5012 
     44 O          27.6448  -47.1507  -54.9730 O.2       6 UNK        -0.5003 
     45 CA         29.8527  -46.8778  -54.0647 C.3       5 UNK         0.0782 
     46 C46        29.9993  -46.2237  -52.6630 C.3       11 UNK        -0.0868 
     47 S47        28.7218  -44.9665  -52.2917 S.3       11 UNK        -0.2515 
     48 C48        29.5923  -43.3983  -52.6140 C.3       11 UNK         0.0199 
     49 N          30.9688  -47.7807  -54.3674 N.am      5 UNK        -0.4607 
     50 C          31.1659  -48.3697  -55.5597 C.2       4 UNK         0.5031 
     51 O          30.4697  -48.1552  -56.5508 O.2       4 UNK        -0.5119 
     52 CA         32.2754  -49.4310  -55.6627 C.3       4 UNK         0.0263 
     53 CB         33.5689  -48.8212  -56.2187 C.3       4 UNK        -0.1967 
     54 N          32.5375  -50.1160  -54.3952 N.am      4 UNK        -0.4237 
     55 C          31.6405  -50.8965  -53.7712 C.2       3 UNK         0.4908 
     56 O          30.5319  -51.1606  -54.2385 O.2       3 UNK        -0.5102 
     57 CA         32.0057  -51.4454  -52.3799 C.3       3 UNK         0.0241 
     58 CB         32.4623  -52.9090  -52.4872 C.3       3 UNK        -0.1971 
     59 N          33.0236  -50.6726  -51.6594 N.am      3 UNK        -0.4139 
     60 C          32.9297  -49.3783  -51.3226 C.2       2 UNK         0.5016 
     61 O          31.9658  -48.6675  -51.6142 O.2       2 UNK        -0.5319 
     62 CA         34.1165  -48.7516  -50.5633 C.3       2 UNK         0.0286 
     63 CB         35.2898  -49.7225  -50.2937 C.3       2 UNK        -0.1963 
     64 N          34.6065  -47.5390  -51.2298 N.am      2 UNK        -0.4790 
     65 C          35.0387  -47.4303  -52.4977 C.2       1 UNK         0.5024 
     66 O          35.0903  -48.3743  -53.2877 O.2       1 UNK        -0.4888 
     67 H67        37.2852  -44.0119  -49.9547 H         1 UNK         0.0892 
     68 H68        38.1378  -45.4392  -49.3636 H         1 UNK         0.0892 
     69 H69        38.9160  -44.3643  -50.5283 H         1 UNK         0.0892 
     70 H70        35.7260  -44.5250  -51.4688 H         1 UNK         0.3107 
     71 H71        36.2413  -46.1803  -53.7395 H         1 UNK         0.0773 
     72 H72        34.4241  -44.1488  -53.1795 H         1 UNK         0.0680 
     73 H73        33.3614  -45.5207  -53.1242 H         1 UNK         0.0680 
     74 H74        33.8747  -43.2414  -56.7025 H         1 UNK         0.0650 
     75 H75        34.1083  -42.7660  -55.0432 H         1 UNK         0.0650 
     76 H76        32.2103  -43.3705  -53.3422 H         1 UNK         0.1397 
     77 H77        28.2579  -43.3420  -54.9915 H         1 UNK         0.1363 
     78 H78        31.6659  -43.4791  -57.5932 H         1 UNK         0.1355 
     79 H79        29.5004  -43.4925  -58.5554 H         1 UNK         0.0707 
     80 H80        28.3268  -44.3242  -57.5565 H         1 UNK         0.0707 
     81 H81        26.6874  -41.4518  -59.7291 H         1 UNK         0.1034 
     82 H82        27.4087  -43.0305  -59.8421 H         1 UNK         0.1034 
     83 H83        24.9103  -42.3156  -58.2163 H         1 UNK         0.0482 
     84 H84        23.8874  -44.5005  -61.5016 H         1 UNK         0.3460 
     85 H85        24.8380  -45.2283  -60.2260 H         1 UNK         0.3460 
     86 H86        26.5104  -44.7066  -58.1053 H         1 UNK         0.2989 
     87 H87        25.1605  -46.1535  -55.8020 H         1 UNK         0.0559 
     88 H88        23.4781  -47.4497  -58.0099 H         1 UNK         0.0848 
     89 H89        22.8964  -46.9055  -56.4429 H         1 UNK         0.0848 
     90 H90        24.0138  -48.2554  -56.5359 H         1 UNK         0.0848 
     91 H91        26.8697  -47.1770  -56.7094 H         1 UNK         0.3144 
     92 H92        27.7111  -48.3150  -60.0103 H         1 UNK         0.0727 
     93 H93        29.1144  -46.4298  -58.0531 H         1 UNK         0.0790 
     94 H94        28.6871  -46.0203  -59.7132 H         1 UNK         0.0790 
     95 H95        29.8517  -47.2955  -59.3929 H         1 UNK         0.0790 
     96 H96        28.8418  -48.7559  -57.3843 H         1 UNK         0.3215 
     97 H97        27.2775  -52.0045  -57.0361 H         1 UNK         0.0863 
     98 H98        29.7095  -52.5007  -56.6734 H         1 UNK         0.0808 
     99 H99        30.1327  -51.0006  -57.4992 H         1 UNK         0.0808 
    100 H100       29.3253  -52.2891  -58.3750 H         1 UNK         0.0808 
    101 H101       28.9542  -50.5765  -55.2385 H         1 UNK         0.3118 
    102 H102       26.3379  -49.0296  -53.3551 H         1 UNK         0.0546 
    103 H103       26.4637  -51.3885  -52.5431 H         1 UNK         0.0828 
    104 H104       27.4371  -50.3222  -51.5447 H         1 UNK         0.0828 
    105 H105       28.2113  -51.3770  -52.7276 H         1 UNK         0.0828 
    106 H106       29.1688  -49.0935  -53.0103 H         1 UNK         0.3005 
    107 H107       29.8771  -46.0874  -54.8171 H         1 UNK         0.1257 
    108 H108       30.9847  -45.7680  -52.5637 H         1 UNK         0.0775 
    109 H109       29.9498  -46.9829  -51.8810 H         1 UNK         0.0775 
    110 H110       28.8939  -42.5698  -52.4878 H         1 UNK         0.0840 
    111 H111       30.3706  -43.2617  -51.8615 H         1 UNK         0.0840 
    112 H112       31.5478  -48.0543  -53.5810 H         1 UNK         0.2987 
    113 H113       31.9404  -50.1866  -56.3740 H         1 UNK         0.0785 
    114 H114       33.3966  -48.3694  -57.1966 H         1 UNK         0.0798 
    115 H115       34.3469  -49.5748  -56.3402 H         1 UNK         0.0798 
    116 H116       33.9561  -48.0402  -55.5678 H         1 UNK         0.0798 
    117 H117       33.4173  -49.9115  -53.9378 H         1 UNK         0.3079 
    118 H118       31.0937  -51.4159  -51.7800 H         1 UNK         0.0794 
    119 H119       33.3915  -53.0017  -53.0510 H         1 UNK         0.0786 
    120 H120       31.7113  -53.5162  -52.9951 H         1 UNK         0.0786 
    121 H121       32.6193  -53.3503  -51.5028 H         1 UNK         0.0786 
    122 H122       33.8635  -51.1685  -51.3979 H         1 UNK         0.3032 
    123 H123       33.7172  -48.4383  -49.5972 H         1 UNK         0.1094 
    124 H124       36.0790  -49.2280  -49.7268 H         1 UNK         0.0794 
    125 H125       34.9697  -50.5810  -49.7017 H         1 UNK         0.0794 
    126 H126       35.7386  -50.0959  -51.2151 H         1 UNK         0.0794 
    127 H127       34.5825  -46.6973  -50.6718 H         1 UNK         0.3016 
@<TRIPOS>BOND
     1    1    2 1    
     2    1   67 1    
     3    1   68 1    
     4    1   69 1    
     5    2    3 2    
     6    2    4 am   BACKBONE|DICT|INTERRES
     7    4    5 1    
     8    4   70 1    
     9    5    6 1    
    10    5   65 1    
    11    5   71 1    
    12    6    7 1    
    13    6   72 1    
    14    6   73 1    
    15    7    8 1    
    16    8    9 1    
    17    8   74 1    
    18    8   75 1    
    19    9   10 ar   
    20    9   14 ar   
    21   10   11 ar   
    22   10   76 1    
    23   11   12 ar   
    24   11   48 1    
    25   12   13 ar   
    26   12   77 1    
    27   13   14 ar   
    28   13   15 1    
    29   14   78 1    
    30   15   16 1    
    31   15   79 1    
    32   15   80 1    
    33   16   17 1    
    34   17   18 1    
    35   17   81 1    
    36   17   82 1    
    37   18   19 1    
    38   18   22 1    
    39   18   83 1    
    40   19   20 am   BACKBONE|DICT|INTERRES
    41   19   21 2    
    42   20   84 1    
    43   20   85 1    
    44   22   23 am   BACKBONE|DICT|INTERRES
    45   22   86 1    
    46   23   24 2    
    47   23   25 1    
    48   25   26 1    
    49   25   27 1    
    50   25   87 1    
    51   26   88 1    
    52   26   89 1    
    53   26   90 1    
    54   27   28 am   BACKBONE|DICT|INTERRES
    55   27   91 1    
    56   28   29 2    
    57   28   30 1    
    58   30   31 1    
    59   30   32 1    
    60   30   92 1    
    61   31   93 1    
    62   31   94 1    
    63   31   95 1    
    64   32   33 am   BACKBONE|DICT|INTERRES
    65   32   96 1    
    66   33   34 2    
    67   33   35 1    
    68   35   36 1    
    69   35   37 1    
    70   35   97 1    
    71   36   98 1    
    72   36   99 1    
    73   36  100 1    
    74   37   38 am   BACKBONE|DICT|INTERRES
    75   37  101 1    
    76   38   39 2    
    77   38   40 1    
    78   40   41 1    
    79   40   42 1    
    80   40  102 1    
    81   41  103 1    
    82   41  104 1    
    83   41  105 1    
    84   42   43 am   BACKBONE|DICT|INTERRES
    85   42  106 1    
    86   43   44 2    
    87   43   45 1    
    88   45   46 1    
    89   45   49 1    
    90   45  107 1    
    91   46   47 1    
    92   46  108 1    
    93   46  109 1    
    94   47   48 1    
    95   48  110 1    
    96   48  111 1    
    97   49   50 am   BACKBONE|DICT|INTERRES
    98   49  112 1    
    99   50   51 2    
   100   50   52 1    
   101   52   53 1    
   102   52   54 1    
   103   52  113 1    
   104   53  114 1    
   105   53  115 1    
   106   53  116 1    
   107   54   55 am   BACKBONE|DICT|INTERRES
   108   54  117 1    
   109   55   56 2    
   110   55   57 1    
   111   57   58 1    
   112   57   59 1    
   113   57  118 1    
   114   58  119 1    
   115   58  120 1    
   116   58  121 1    
   117   59   60 am   BACKBONE|DICT|INTERRES
   118   59  122 1    
   119   60   61 2    
   120   60   62 1    
   121   62   63 1    
   122   62   64 1    
   123   62  123 1    
   124   63  124 1    
   125   63  125 1    
   126   63  126 1    
   127   64   65 am   BACKBONE|DICT|INTERRES
   128   64  127 1    
   129   65   66 2    
@<TRIPOS>SUBSTRUCTURE
     1 UNK         1 GROUP             0       ****    0 ROOT    
