@<TRIPOS>MOLECULE
3R134
127   129    1
SMALL
USER_CHARGES


@<TRIPOS>ATOM
      1 CA         33.6508  -43.1589  -58.1176 C.3       0 UNK        -0.1968 
      2 C          34.1346  -43.6191  -56.7503 C.2       0 UNK         0.4852 
      3 O          35.2253  -43.2337  -56.3279 O.2       0 UNK        -0.5359 
      4 N          33.3284  -44.4457  -56.0696 N.am      1 UNK        -0.4300 
      5 CA         33.6206  -45.1036  -54.7882 C.3       1 UNK         0.0863 
      6 C6         33.9809  -44.1031  -53.6511 C.3       11 UNK        -0.0953 
      7 S7         33.3401  -44.6093  -52.0188 S.3       11 UNK        -0.2369 
      8 C8         32.1937  -43.2534  -51.6159 C.3       11 UNK         0.0226 
      9 C9         30.7776  -43.5137  -52.1132 C.ar      11 UNK        -0.0699 
     10 C10        29.7639  -43.8200  -51.1984 C.ar      11 UNK        -0.0804 
     11 C11        28.4453  -43.9923  -51.6297 C.ar      11 UNK        -0.0871 
     12 C12        28.1463  -43.8621  -52.9874 C.ar      11 UNK        -0.1008 
     13 C13        29.1542  -43.5953  -53.9175 C.ar      11 UNK        -0.0735 
     14 C14        30.4674  -43.4098  -53.4741 C.ar      11 UNK        -0.0945 
     15 C15        28.8062  -43.4944  -55.3949 C.3       11 UNK         0.0169 
     16 S16        28.1259  -45.0605  -56.0281 S.3       11 UNK        -0.2669 
     17 C17        29.6303  -46.0579  -56.2976 C.3       11 UNK        -0.0850 
     18 CA         29.8481  -46.3911  -57.7973 C.3       10 UNK         0.0855 
     19 C          31.1897  -47.1414  -58.0236 C.2       10 UNK         0.5543 
     20 N          31.2019  -48.3257  -58.6210 N.am      10 UNK        -0.7343 
     21 O          32.2408  -46.6286  -57.6496 O.2       10 UNK        -0.5027 
     22 N          28.6645  -47.0529  -58.3666 N.am      10 UNK        -0.4495 
     23 C          28.2719  -46.9835  -59.6445 C.2       10 UNK         0.4903 
     24 O          28.9352  -46.4731  -60.5471 O.2       10 UNK        -0.4860 
     25 CA         26.8707  -47.5380  -59.9502 C.3       9 UNK         0.0227 
     26 CB         26.9329  -49.0416  -60.2639 C.3       9 UNK        -0.1964 
     27 N          25.9653  -47.3018  -58.8213 N.am      9 UNK        -0.4231 
     28 C          25.3477  -46.1369  -58.5721 C.2       9 UNK         0.5014 
     29 O          25.3467  -45.1946  -59.3665 O.2       9 UNK        -0.5270 
     30 CA         24.6518  -45.9494  -57.2044 C.3       8 UNK         0.0284 
     31 CB         23.2104  -45.4177  -57.3573 C.3       8 UNK        -0.1977 
     32 N          24.7042  -47.1172  -56.3110 N.am      8 UNK        -0.4342 
     33 C          24.0958  -48.3004  -56.4740 C.2       8 UNK         0.5039 
     34 O          23.3485  -48.5599  -57.4187 O.2       8 UNK        -0.5547 
     35 CA         24.4039  -49.3862  -55.4207 C.3       7 UNK         0.0281 
     36 CB         24.0056  -50.7951  -55.9091 C.3       7 UNK        -0.1963 
     37 N          25.7916  -49.4231  -54.9309 N.am      7 UNK        -0.4444 
     38 C          26.9257  -49.4385  -55.6456 C.2       7 UNK         0.5104 
     39 O          26.9973  -49.1485  -56.8411 O.2       7 UNK        -0.5100 
     40 CA         28.1964  -49.8521  -54.8815 C.3       6 UNK         0.0396 
     41 CB         29.3607  -50.1929  -55.8273 C.3       6 UNK        -0.1801 
     42 N          28.6442  -48.8378  -53.9295 N.am      6 UNK        -0.4747 
     43 C          28.0759  -48.5381  -52.7560 C.2       6 UNK         0.5012 
     44 O          27.0578  -49.0964  -52.3408 O.2       6 UNK        -0.5003 
     45 CA         28.8005  -47.4686  -51.9032 C.3       5 UNK         0.0782 
     46 C46        28.0350  -47.0650  -50.6143 C.3       11 UNK        -0.0868 
     47 S47        26.6161  -45.9677  -50.9481 S.3       11 UNK        -0.2515 
     48 C48        27.3396  -44.3234  -50.6369 C.3       11 UNK         0.0199 
     49 N          30.1691  -47.8853  -51.5788 N.am      5 UNK        -0.4607 
     50 C          31.2153  -47.8658  -52.4140 C.2       4 UNK         0.5031 
     51 O          31.1413  -47.4721  -53.5810 O.2       4 UNK        -0.5119 
     52 CA         32.5670  -48.3743  -51.8714 C.3       4 UNK         0.0263 
     53 CB         32.4619  -49.2050  -50.5711 C.3       4 UNK        -0.1967 
     54 N          33.3172  -49.0984  -52.9027 N.am      4 UNK        -0.4237 
     55 C          32.9493  -50.2292  -53.5270 C.2       3 UNK         0.4908 
     56 O          31.9521  -50.8888  -53.2308 O.2       3 UNK        -0.5102 
     57 CA         33.8423  -50.6727  -54.6968 C.3       3 UNK         0.0241 
     58 CB         33.1740  -51.7045  -55.6260 C.3       3 UNK        -0.1971 
     59 N          34.2373  -49.5005  -55.4756 N.am      3 UNK        -0.4139 
     60 C          35.4803  -49.2155  -55.8767 C.2       2 UNK         0.5016 
     61 O          36.4486  -49.9578  -55.7084 O.2       2 UNK        -0.5319 
     62 CA         35.6816  -47.8575  -56.5682 C.3       2 UNK         0.0286 
     63 CB         35.6300  -48.0174  -58.0960 C.3       2 UNK        -0.1963 
     64 N          34.7070  -46.8384  -56.1638 N.am      2 UNK        -0.4790 
     65 C          34.6475  -46.2514  -54.9575 C.2       1 UNK         0.5024 
     66 O          35.3616  -46.5925  -54.0132 O.2       1 UNK        -0.4888 
     67 H67        32.6923  -43.6050  -58.3836 H         1 UNK         0.0892 
     68 H68        33.5370  -42.0753  -58.1304 H         1 UNK         0.0892 
     69 H69        34.3751  -43.4355  -58.8834 H         1 UNK         0.0892 
     70 H70        32.5033  -44.7934  -56.5405 H         1 UNK         0.3107 
     71 H71        32.6841  -45.5919  -54.5190 H         1 UNK         0.0773 
     72 H72        35.0601  -43.9575  -53.5759 H         1 UNK         0.0680 
     73 H73        33.5840  -43.1150  -53.8839 H         1 UNK         0.0680 
     74 H74        32.1913  -43.1304  -50.5318 H         1 UNK         0.0650 
     75 H75        32.5617  -42.3081  -52.0164 H         1 UNK         0.0650 
     76 H76        29.9998  -43.9098  -50.1468 H         1 UNK         0.1397 
     77 H77        27.1280  -43.9978  -53.3265 H         1 UNK         0.1363 
     78 H78        31.2458  -43.1765  -54.1860 H         1 UNK         0.1355 
     79 H79        29.6708  -43.1989  -55.9915 H         1 UNK         0.0707 
     80 H80        28.0594  -42.7103  -55.5265 H         1 UNK         0.0707 
     81 H81        29.5352  -46.9743  -55.7184 H         1 UNK         0.1034 
     82 H82        30.4899  -45.5339  -55.8785 H         1 UNK         0.1034 
     83 H83        29.9661  -45.4389  -58.3181 H         1 UNK         0.0482 
     84 H84        30.3433  -48.7358  -58.9496 H         1 UNK         0.3460 
     85 H85        32.0791  -48.7941  -58.7759 H         1 UNK         0.3460 
     86 H86        28.0672  -47.5410  -57.7107 H         1 UNK         0.2989 
     87 H87        26.4845  -47.0234  -60.8326 H         1 UNK         0.0559 
     88 H88        25.9440  -49.4393  -60.4922 H         1 UNK         0.0848 
     89 H89        27.3403  -49.6175  -59.4324 H         1 UNK         0.0848 
     90 H90        27.5666  -49.2310  -61.1312 H         1 UNK         0.0848 
     91 H91        25.9528  -48.0176  -58.1011 H         1 UNK         0.3144 
     92 H92        25.2213  -45.1719  -56.6942 H         1 UNK         0.0727 
     93 H93        22.7387  -45.2625  -56.3870 H         1 UNK         0.0790 
     94 H94        22.5827  -46.0988  -57.9323 H         1 UNK         0.0790 
     95 H95        23.2017  -44.4586  -57.8765 H         1 UNK         0.0790 
     96 H96        25.3234  -47.0244  -55.5170 H         1 UNK         0.3215 
     97 H97        23.7810  -49.1477  -54.5572 H         1 UNK         0.0863 
     98 H98        24.1789  -51.5471  -55.1393 H         1 UNK         0.0808 
     99 H99        24.5709  -51.0860  -56.7955 H         1 UNK         0.0808 
    100 H100       22.9466  -50.8403  -56.1670 H         1 UNK         0.0808 
    101 H101       25.9011  -49.5539  -53.9288 H         1 UNK         0.3118 
    102 H102       27.9559  -50.7600  -54.3243 H         1 UNK         0.0546 
    103 H103       29.7013  -49.3226  -56.3861 H         1 UNK         0.0828 
    104 H104       29.0682  -50.9530  -56.5529 H         1 UNK         0.0828 
    105 H105       30.2095  -50.5881  -55.2718 H         1 UNK         0.0828 
    106 H106       29.5172  -48.3640  -54.1428 H         1 UNK         0.3005 
    107 H107       28.8810  -46.5821  -52.5361 H         1 UNK         0.1257 
    108 H108       27.6870  -47.9428  -50.0666 H         1 UNK         0.0775 
    109 H109       28.7044  -46.5434  -49.9283 H         1 UNK         0.0775 
    110 H110       26.5535  -43.5712  -50.7163 H         1 UNK         0.0840 
    111 H111       27.7042  -44.2767  -49.6095 H         1 UNK         0.0840 
    112 H112       30.3074  -48.2627  -50.6531 H         1 UNK         0.2987 
    113 H113       33.1565  -47.4866  -51.6438 H         1 UNK         0.0785 
    114 H114       33.4395  -49.5793  -50.2669 H         1 UNK         0.0798 
    115 H115       31.8015  -50.0656  -50.6845 H         1 UNK         0.0798 
    116 H116       32.0860  -48.6023  -49.7435 H         1 UNK         0.0798 
    117 H117       34.1463  -48.6259  -53.2388 H         1 UNK         0.3079 
    118 H118       34.7203  -51.1392  -54.2450 H         1 UNK         0.0794 
    119 H119       32.8512  -52.5867  -55.0717 H         1 UNK         0.0786 
    120 H120       33.8668  -52.0444  -56.3960 H         1 UNK         0.0786 
    121 H121       32.2997  -51.2896  -56.1272 H         1 UNK         0.0786 
    122 H122       33.5136  -48.8172  -55.6548 H         1 UNK         0.3032 
    123 H123       36.6761  -47.4994  -56.2925 H         1 UNK         0.1094 
    124 H124       36.3571  -48.7558  -58.4373 H         1 UNK         0.0794 
    125 H125       34.6464  -48.3459  -58.4343 H         1 UNK         0.0794 
    126 H126       35.8614  -47.0792  -58.6006 H         1 UNK         0.0794 
    127 H127       34.0214  -46.5635  -56.8620 H         1 UNK         0.3016 
@<TRIPOS>BOND
     1    1    2 1    
     2    1   67 1    
     3    1   68 1    
     4    1   69 1    
     5    2    3 2    
     6    2    4 am   BACKBONE|DICT|INTERRES
     7    4    5 1    
     8    4   70 1    
     9    5    6 1    
    10    5   65 1    
    11    5   71 1    
    12    6    7 1    
    13    6   72 1    
    14    6   73 1    
    15    7    8 1    
    16    8    9 1    
    17    8   74 1    
    18    8   75 1    
    19    9   10 ar   
    20    9   14 ar   
    21   10   11 ar   
    22   10   76 1    
    23   11   12 ar   
    24   11   48 1    
    25   12   13 ar   
    26   12   77 1    
    27   13   14 ar   
    28   13   15 1    
    29   14   78 1    
    30   15   16 1    
    31   15   79 1    
    32   15   80 1    
    33   16   17 1    
    34   17   18 1    
    35   17   81 1    
    36   17   82 1    
    37   18   19 1    
    38   18   22 1    
    39   18   83 1    
    40   19   20 am   BACKBONE|DICT|INTERRES
    41   19   21 2    
    42   20   84 1    
    43   20   85 1    
    44   22   23 am   BACKBONE|DICT|INTERRES
    45   22   86 1    
    46   23   24 2    
    47   23   25 1    
    48   25   26 1    
    49   25   27 1    
    50   25   87 1    
    51   26   88 1    
    52   26   89 1    
    53   26   90 1    
    54   27   28 am   BACKBONE|DICT|INTERRES
    55   27   91 1    
    56   28   29 2    
    57   28   30 1    
    58   30   31 1    
    59   30   32 1    
    60   30   92 1    
    61   31   93 1    
    62   31   94 1    
    63   31   95 1    
    64   32   33 am   BACKBONE|DICT|INTERRES
    65   32   96 1    
    66   33   34 2    
    67   33   35 1    
    68   35   36 1    
    69   35   37 1    
    70   35   97 1    
    71   36   98 1    
    72   36   99 1    
    73   36  100 1    
    74   37   38 am   BACKBONE|DICT|INTERRES
    75   37  101 1    
    76   38   39 2    
    77   38   40 1    
    78   40   41 1    
    79   40   42 1    
    80   40  102 1    
    81   41  103 1    
    82   41  104 1    
    83   41  105 1    
    84   42   43 am   BACKBONE|DICT|INTERRES
    85   42  106 1    
    86   43   44 2    
    87   43   45 1    
    88   45   46 1    
    89   45   49 1    
    90   45  107 1    
    91   46   47 1    
    92   46  108 1    
    93   46  109 1    
    94   47   48 1    
    95   48  110 1    
    96   48  111 1    
    97   49   50 am   BACKBONE|DICT|INTERRES
    98   49  112 1    
    99   50   51 2    
   100   50   52 1    
   101   52   53 1    
   102   52   54 1    
   103   52  113 1    
   104   53  114 1    
   105   53  115 1    
   106   53  116 1    
   107   54   55 am   BACKBONE|DICT|INTERRES
   108   54  117 1    
   109   55   56 2    
   110   55   57 1    
   111   57   58 1    
   112   57   59 1    
   113   57  118 1    
   114   58  119 1    
   115   58  120 1    
   116   58  121 1    
   117   59   60 am   BACKBONE|DICT|INTERRES
   118   59  122 1    
   119   60   61 2    
   120   60   62 1    
   121   62   63 1    
   122   62   64 1    
   123   62  123 1    
   124   63  124 1    
   125   63  125 1    
   126   63  126 1    
   127   64   65 am   BACKBONE|DICT|INTERRES
   128   64  127 1    
   129   65   66 2    
@<TRIPOS>SUBSTRUCTURE
     1 UNK         1 GROUP             0       ****    0 ROOT    
