@<TRIPOS>MOLECULE
3R134
127   129    1
SMALL
USER_CHARGES


@<TRIPOS>ATOM
      1 CA         37.1106  -42.7356  -49.6462 C.3       0 UNK        -0.1968 
      2 C          36.3639  -43.6596  -50.5973 C.2       0 UNK         0.4852 
      3 O          36.8596  -43.9418  -51.6897 O.2       0 UNK        -0.5359 
      4 N          35.1738  -44.1230  -50.1949 N.am      1 UNK        -0.4300 
      5 CA         34.3376  -45.0578  -50.9544 C.3       1 UNK         0.0863 
      6 C6         32.8804  -45.0928  -50.4270 C.3       11 UNK        -0.0953 
      7 S7         32.0609  -43.4636  -50.4747 S.3       11 UNK        -0.2369 
      8 C8         30.4608  -43.8694  -51.2614 C.3       11 UNK         0.0226 
      9 C9         30.4384  -43.8932  -52.7931 C.ar      11 UNK        -0.0699 
     10 C10        31.5924  -43.8179  -53.5833 C.ar      11 UNK        -0.0804 
     11 C11        31.5084  -43.8089  -54.9788 C.ar      11 UNK        -0.0871 
     12 C12        30.2516  -43.8801  -55.5903 C.ar      11 UNK        -0.1008 
     13 C13        29.0826  -43.9572  -54.8206 C.ar      11 UNK        -0.0735 
     14 C14        29.1947  -43.9705  -53.4267 C.ar      11 UNK        -0.0945 
     15 C15        27.6796  -44.0323  -55.4313 C.3       11 UNK         0.0169 
     16 S16        27.5309  -43.4134  -57.1438 S.3       11 UNK        -0.2669 
     17 C17        27.7037  -44.9485  -58.1207 C.3       11 UNK        -0.0850 
     18 CA         26.5432  -45.1313  -59.1343 C.3       10 UNK         0.0855 
     19 C          26.8105  -46.3151  -60.1104 C.2       10 UNK         0.5543 
     20 N          25.9177  -47.2885  -60.2560 N.am      10 UNK        -0.7343 
     21 O          27.8471  -46.3414  -60.7688 O.2       10 UNK        -0.5027 
     22 N          25.2347  -45.1997  -58.4638 N.am      10 UNK        -0.4495 
     23 C          24.0838  -44.7769  -59.0049 C.2       10 UNK         0.4903 
     24 O          24.0157  -44.1997  -60.0917 O.2       10 UNK        -0.4860 
     25 CA         22.7893  -45.0415  -58.2036 C.3       9 UNK         0.0227 
     26 CB         21.5351  -45.0861  -59.1030 C.3       9 UNK        -0.1964 
     27 N          22.8511  -46.2355  -57.3495 N.am      9 UNK        -0.4231 
     28 C          23.1009  -47.4936  -57.7395 C.2       9 UNK         0.5014 
     29 O          23.2934  -47.8383  -58.9082 O.2       9 UNK        -0.5270 
     30 CA         23.2074  -48.5396  -56.6176 C.3       8 UNK         0.0284 
     31 CB         22.1131  -49.6104  -56.7608 C.3       8 UNK        -0.1977 
     32 N          24.5237  -49.1834  -56.6034 N.am      8 UNK        -0.4342 
     33 C          25.6924  -48.5435  -56.4633 C.2       8 UNK         0.5039 
     34 O          25.7934  -47.3203  -56.3180 O.2       8 UNK        -0.5547 
     35 CA         26.9537  -49.4207  -56.5223 C.3       7 UNK         0.0281 
     36 CB         27.3303  -49.7411  -57.9775 C.3       7 UNK        -0.1963 
     37 N          28.0785  -48.7360  -55.8954 N.am      7 UNK        -0.4444 
     38 C          28.3182  -48.6655  -54.5840 C.2       7 UNK         0.5104 
     39 O          27.6964  -49.3174  -53.7425 O.2       7 UNK        -0.5100 
     40 CA         29.4255  -47.6833  -54.1467 C.3       6 UNK         0.0396 
     41 CB         29.7516  -47.7782  -52.6453 C.3       6 UNK        -0.1801 
     42 N          30.6737  -47.8030  -54.9060 N.am      6 UNK        -0.4747 
     43 C          30.8845  -47.4131  -56.1720 C.2       6 UNK         0.5012 
     44 O          30.0010  -46.9819  -56.9123 O.2       6 UNK        -0.5003 
     45 CA         32.3152  -47.5626  -56.7126 C.3       5 UNK         0.0782 
     46 C46        33.2408  -46.4271  -56.2090 C.3       11 UNK        -0.0868 
     47 S47        32.9679  -44.8809  -57.1379 S.3       11 UNK        -0.2515 
     48 C48        32.7790  -43.6465  -55.8096 C.3       11 UNK         0.0199 
     49 N          32.8406  -48.8862  -56.3763 N.am      5 UNK        -0.4607 
     50 C          32.7472  -49.9624  -57.1696 C.2       4 UNK         0.5031 
     51 O          32.2697  -49.9365  -58.3040 O.2       4 UNK        -0.5119 
     52 CA         33.2824  -51.2980  -56.6196 C.3       4 UNK         0.0263 
     53 CB         34.7270  -51.5303  -57.0915 C.3       4 UNK        -0.1967 
     54 N          33.2349  -51.3826  -55.1588 N.am      4 UNK        -0.4237 
     55 C          32.1100  -51.4892  -54.4373 C.2       3 UNK         0.4908 
     56 O          30.9898  -51.6222  -54.9299 O.2       3 UNK        -0.5102 
     57 CA         32.2538  -51.4106  -52.9055 C.3       3 UNK         0.0241 
     58 CB         32.3100  -52.8226  -52.3001 C.3       3 UNK        -0.1971 
     59 N          33.4098  -50.6337  -52.4337 N.am      3 UNK        -0.4139 
     60 C          33.6299  -49.3409  -52.7068 C.2       2 UNK         0.5016 
     61 O          32.9233  -48.6672  -53.4623 O.2       2 UNK        -0.5319 
     62 CA         34.8623  -48.6926  -52.0723 C.3       2 UNK         0.0286 
     63 CB         36.1067  -48.9062  -52.9504 C.3       2 UNK        -0.1963 
     64 N          34.5837  -47.2656  -51.9587 N.am      2 UNK        -0.4790 
     65 C          34.9334  -46.4802  -50.9374 C.2       1 UNK         0.5024 
     66 O          35.6377  -46.8529  -49.9950 O.2       1 UNK        -0.4888 
     67 H67        36.5516  -42.5574  -48.7276 H         1 UNK         0.0892 
     68 H68        38.0726  -43.1716  -49.3783 H         1 UNK         0.0892 
     69 H69        37.2929  -41.7732  -50.1236 H         1 UNK         0.0892 
     70 H70        34.8213  -43.8675  -49.2839 H         1 UNK         0.3107 
     71 H71        34.3241  -44.7197  -51.9924 H         1 UNK         0.0773 
     72 H72        32.8517  -45.4528  -49.3967 H         1 UNK         0.0680 
     73 H73        32.2873  -45.7996  -51.0104 H         1 UNK         0.0680 
     74 H74        30.1022  -44.8266  -50.8803 H         1 UNK         0.0650 
     75 H75        29.7417  -43.1220  -50.9231 H         1 UNK         0.0650 
     76 H76        32.5638  -43.7377  -53.1213 H         1 UNK         0.1397 
     77 H77        30.1945  -43.8731  -56.6692 H         1 UNK         0.1363 
     78 H78        28.2982  -44.0302  -52.8243 H         1 UNK         0.1355 
     79 H79        27.0017  -43.4338  -54.8208 H         1 UNK         0.0707 
     80 H80        27.3121  -45.0572  -55.3664 H         1 UNK         0.0707 
     81 H81        28.6664  -44.9066  -58.6339 H         1 UNK         0.1034 
     82 H82        27.7561  -45.8141  -57.4600 H         1 UNK         0.1034 
     83 H83        26.5469  -44.2423  -59.7678 H         1 UNK         0.0482 
     84 H84        25.0458  -47.2879  -59.7378 H         1 UNK         0.3460 
     85 H85        26.1092  -48.0331  -60.9063 H         1 UNK         0.3460 
     86 H86        25.2184  -45.7154  -57.5905 H         1 UNK         0.2989 
     87 H87        22.6790  -44.1922  -57.5279 H         1 UNK         0.0559 
     88 H88        21.6027  -45.8768  -59.8510 H         1 UNK         0.0848 
     89 H89        21.4002  -44.1447  -59.6372 H         1 UNK         0.0848 
     90 H90        20.6314  -45.2547  -58.5175 H         1 UNK         0.0848 
     91 H91        22.7500  -46.0620  -56.3585 H         1 UNK         0.3144 
     92 H92        23.0747  -48.0444  -55.6533 H         1 UNK         0.0727 
     93 H93        22.1426  -50.3234  -55.9367 H         1 UNK         0.0790 
     94 H94        21.1213  -49.1561  -56.7593 H         1 UNK         0.0790 
     95 H95        22.2133  -50.1683  -57.6930 H         1 UNK         0.0790 
     96 H96        24.5345  -50.1815  -56.7559 H         1 UNK         0.3215 
     97 H97        26.7598  -50.3542  -55.9894 H         1 UNK         0.0863 
     98 H98        26.5077  -50.2259  -58.5047 H         1 UNK         0.0808 
     99 H99        28.1866  -50.4144  -58.0234 H         1 UNK         0.0808 
    100 H100       27.5886  -48.8391  -58.5327 H         1 UNK         0.0808 
    101 H101       28.6258  -48.1154  -56.4870 H         1 UNK         0.3118 
    102 H102       29.0271  -46.6858  -54.3289 H         1 UNK         0.0546 
    103 H103       30.4922  -47.0331  -52.3551 H         1 UNK         0.0828 
    104 H104       30.1436  -48.7605  -52.3815 H         1 UNK         0.0828 
    105 H105       28.8632  -47.6031  -52.0375 H         1 UNK         0.0828 
    106 H106       31.4689  -48.1678  -54.3843 H         1 UNK         0.3005 
    107 H107       32.2540  -47.4831  -57.8010 H         1 UNK         0.1257 
    108 H108       34.2854  -46.7047  -56.3586 H         1 UNK         0.0775 
    109 H109       33.1279  -46.2608  -55.1358 H         1 UNK         0.0775 
    110 H110       33.6679  -43.6790  -55.1774 H         1 UNK         0.0840 
    111 H111       32.7663  -42.6540  -56.2618 H         1 UNK         0.0840 
    112 H112       33.1787  -48.9997  -55.4278 H         1 UNK         0.2987 
    113 H113       32.6566  -52.0951  -57.0270 H         1 UNK         0.0785 
    114 H114       34.7907  -51.5007  -58.1803 H         1 UNK         0.0798 
    115 H115       35.0969  -52.5055  -56.7742 H         1 UNK         0.0798 
    116 H116       35.4067  -50.7696  -56.7050 H         1 UNK         0.0798 
    117 H117       34.1120  -51.2981  -54.6668 H         1 UNK         0.3079 
    118 H118       31.3563  -50.9160  -52.5288 H         1 UNK         0.0794 
    119 H119       32.2980  -52.7891  -51.2105 H         1 UNK         0.0786 
    120 H120       33.2065  -53.3605  -52.6112 H         1 UNK         0.0786 
    121 H121       31.4492  -53.4162  -52.6121 H         1 UNK         0.0786 
    122 H122       34.0517  -51.1160  -51.8204 H         1 UNK         0.3032 
    123 H123       35.0215  -49.1285  -51.0830 H         1 UNK         0.1094 
    124 H124       35.9664  -48.5041  -53.9549 H         1 UNK         0.0794 
    125 H125       36.9820  -48.4213  -52.5174 H         1 UNK         0.0794 
    126 H126       36.3415  -49.9666  -53.0504 H         1 UNK         0.0794 
    127 H127       33.9359  -46.9251  -52.6585 H         1 UNK         0.3016 
@<TRIPOS>BOND
     1    1    2 1    
     2    1   67 1    
     3    1   68 1    
     4    1   69 1    
     5    2    3 2    
     6    2    4 am   BACKBONE|DICT|INTERRES
     7    4    5 1    
     8    4   70 1    
     9    5    6 1    
    10    5   65 1    
    11    5   71 1    
    12    6    7 1    
    13    6   72 1    
    14    6   73 1    
    15    7    8 1    
    16    8    9 1    
    17    8   74 1    
    18    8   75 1    
    19    9   10 ar   
    20    9   14 ar   
    21   10   11 ar   
    22   10   76 1    
    23   11   12 ar   
    24   11   48 1    
    25   12   13 ar   
    26   12   77 1    
    27   13   14 ar   
    28   13   15 1    
    29   14   78 1    
    30   15   16 1    
    31   15   79 1    
    32   15   80 1    
    33   16   17 1    
    34   17   18 1    
    35   17   81 1    
    36   17   82 1    
    37   18   19 1    
    38   18   22 1    
    39   18   83 1    
    40   19   20 am   BACKBONE|DICT|INTERRES
    41   19   21 2    
    42   20   84 1    
    43   20   85 1    
    44   22   23 am   BACKBONE|DICT|INTERRES
    45   22   86 1    
    46   23   24 2    
    47   23   25 1    
    48   25   26 1    
    49   25   27 1    
    50   25   87 1    
    51   26   88 1    
    52   26   89 1    
    53   26   90 1    
    54   27   28 am   BACKBONE|DICT|INTERRES
    55   27   91 1    
    56   28   29 2    
    57   28   30 1    
    58   30   31 1    
    59   30   32 1    
    60   30   92 1    
    61   31   93 1    
    62   31   94 1    
    63   31   95 1    
    64   32   33 am   BACKBONE|DICT|INTERRES
    65   32   96 1    
    66   33   34 2    
    67   33   35 1    
    68   35   36 1    
    69   35   37 1    
    70   35   97 1    
    71   36   98 1    
    72   36   99 1    
    73   36  100 1    
    74   37   38 am   BACKBONE|DICT|INTERRES
    75   37  101 1    
    76   38   39 2    
    77   38   40 1    
    78   40   41 1    
    79   40   42 1    
    80   40  102 1    
    81   41  103 1    
    82   41  104 1    
    83   41  105 1    
    84   42   43 am   BACKBONE|DICT|INTERRES
    85   42  106 1    
    86   43   44 2    
    87   43   45 1    
    88   45   46 1    
    89   45   49 1    
    90   45  107 1    
    91   46   47 1    
    92   46  108 1    
    93   46  109 1    
    94   47   48 1    
    95   48  110 1    
    96   48  111 1    
    97   49   50 am   BACKBONE|DICT|INTERRES
    98   49  112 1    
    99   50   51 2    
   100   50   52 1    
   101   52   53 1    
   102   52   54 1    
   103   52  113 1    
   104   53  114 1    
   105   53  115 1    
   106   53  116 1    
   107   54   55 am   BACKBONE|DICT|INTERRES
   108   54  117 1    
   109   55   56 2    
   110   55   57 1    
   111   57   58 1    
   112   57   59 1    
   113   57  118 1    
   114   58  119 1    
   115   58  120 1    
   116   58  121 1    
   117   59   60 am   BACKBONE|DICT|INTERRES
   118   59  122 1    
   119   60   61 2    
   120   60   62 1    
   121   62   63 1    
   122   62   64 1    
   123   62  123 1    
   124   63  124 1    
   125   63  125 1    
   126   63  126 1    
   127   64   65 am   BACKBONE|DICT|INTERRES
   128   64  127 1    
   129   65   66 2    
@<TRIPOS>SUBSTRUCTURE
     1 UNK         1 GROUP             0       ****    0 ROOT    
