@<TRIPOS>MOLECULE
3R134
127   129    1
SMALL
USER_CHARGES


@<TRIPOS>ATOM
      1 CA         30.3291  -44.6939  -47.5794 C.3       0 UNK        -0.1968 
      2 C          31.6190  -45.0090  -48.3230 C.2       0 UNK         0.4852 
      3 O          32.6736  -45.1221  -47.6956 O.2       0 UNK        -0.5359 
      4 N          31.5446  -45.1435  -49.6537 N.am      1 UNK        -0.4300 
      5 CA         32.6657  -45.5140  -50.5210 C.3       1 UNK         0.0863 
      6 C6         32.3534  -45.1832  -52.0001 C.3       11 UNK        -0.0953 
      7 S7         33.8391  -45.1539  -53.0598 S.3       11 UNK        -0.2369 
      8 C8         33.5075  -43.7110  -54.1219 C.3       11 UNK         0.0226 
      9 C9         32.4839  -44.0226  -55.2065 C.ar      11 UNK        -0.0699 
     10 C10        32.9055  -44.3907  -56.4878 C.ar      11 UNK        -0.0804 
     11 C11        31.9724  -44.6584  -57.4958 C.ar      11 UNK        -0.0871 
     12 C12        30.6066  -44.5696  -57.2086 C.ar      11 UNK        -0.1008 
     13 C13        30.1730  -44.2089  -55.9297 C.ar      11 UNK        -0.0735 
     14 C14        31.1156  -43.9253  -54.9383 C.ar      11 UNK        -0.0945 
     15 C15        28.6903  -44.1473  -55.6003 C.3       11 UNK         0.0169 
     16 S16        28.0154  -42.4705  -55.8164 S.3       11 UNK        -0.2669 
     17 C17        27.5329  -42.4795  -57.5785 C.3       11 UNK        -0.0850 
     18 CA         26.0161  -42.7499  -57.7705 C.3       10 UNK         0.0855 
     19 C          25.5862  -42.5619  -59.2559 C.2       10 UNK         0.5543 
     20 N          24.9872  -43.5464  -59.9170 N.am      10 UNK        -0.7343 
     21 O          25.7942  -41.4907  -59.8200 O.2       10 UNK        -0.5027 
     22 N          25.6300  -44.0462  -57.1952 N.am      10 UNK        -0.4495 
     23 C          24.4202  -44.3607  -56.7204 C.2       10 UNK         0.4903 
     24 O          23.4837  -43.5639  -56.6437 O.2       10 UNK        -0.4860 
     25 CA         24.2375  -45.8226  -56.2602 C.3       9 UNK         0.0227 
     26 CB         22.7580  -46.2612  -56.2464 C.3       9 UNK        -0.1964 
     27 N          25.0543  -46.7838  -57.0179 N.am      9 UNK        -0.4231 
     28 C          25.0272  -46.9974  -58.3461 C.2       9 UNK         0.5014 
     29 O          24.3089  -46.3649  -59.1218 O.2       9 UNK        -0.5270 
     30 CA         25.9845  -48.0545  -58.9302 C.3       8 UNK         0.0284 
     31 CB         27.0690  -47.3744  -59.7837 C.3       8 UNK        -0.1977 
     32 N          26.6224  -48.8919  -57.9102 N.am      8 UNK        -0.4342 
     33 C          25.9960  -49.8680  -57.2335 C.2       8 UNK         0.5039 
     34 O          24.8391  -50.2182  -57.4700 O.2       8 UNK        -0.5547 
     35 CA         26.7573  -50.5607  -56.0856 C.3       7 UNK         0.0281 
     36 CB         27.1995  -51.9700  -56.5107 C.3       7 UNK        -0.1963 
     37 N          27.9213  -49.8171  -55.5941 N.am      7 UNK        -0.4444 
     38 C          27.8787  -48.6100  -55.0070 C.2       7 UNK         0.5104 
     39 O          26.8343  -47.9928  -54.7926 O.2       7 UNK        -0.5100 
     40 CA         29.2287  -47.9484  -54.6633 C.3       6 UNK         0.0396 
     41 CB         29.6184  -48.2840  -53.2163 C.3       6 UNK        -0.1801 
     42 N          30.3285  -48.3214  -55.5626 N.am      6 UNK        -0.4747 
     43 C          30.3047  -48.2181  -56.9040 C.2       6 UNK         0.5012 
     44 O          29.3503  -47.7415  -57.5191 O.2       6 UNK        -0.5003 
     45 CA         31.4809  -48.8325  -57.7038 C.3       5 UNK         0.0782 
     46 C46        32.5021  -47.7677  -58.1750 C.3       11 UNK        -0.0868 
     47 S47        31.8443  -46.6528  -59.4609 S.3       11 UNK        -0.2515 
     48 C48        32.4466  -45.0265  -58.8974 C.3       11 UNK         0.0199 
     49 N          32.1765  -49.9030  -56.9843 N.am      5 UNK        -0.4607 
     50 C          31.6370  -51.0150  -56.4658 C.2       4 UNK         0.5031 
     51 O          30.4592  -51.3395  -56.6141 O.2       4 UNK        -0.5119 
     52 CA         32.5576  -51.8730  -55.5756 C.3       4 UNK         0.0263 
     53 CB         33.0698  -53.0946  -56.3548 C.3       4 UNK        -0.1967 
     54 N          33.7019  -51.1340  -55.0189 N.am      4 UNK        -0.4237 
     55 C          33.6086  -50.0749  -54.2008 C.2       3 UNK         0.4908 
     56 O          32.5390  -49.6040  -53.8086 O.2       3 UNK        -0.5102 
     57 CA         34.9253  -49.3659  -53.8520 C.3       3 UNK         0.0241 
     58 CB         35.2173  -48.2634  -54.8848 C.3       3 UNK        -0.1971 
     59 N          34.8769  -48.7669  -52.5187 N.am      3 UNK        -0.4139 
     60 C          34.9305  -49.4571  -51.3714 C.2       2 UNK         0.5016 
     61 O          35.0681  -50.6804  -51.3169 O.2       2 UNK        -0.5319 
     62 CA         34.8496  -48.6567  -50.0586 C.3       2 UNK         0.0286 
     63 CB         36.2361  -48.5682  -49.3989 C.3       2 UNK        -0.1963 
     64 N          34.3220  -47.2999  -50.2341 N.am      2 UNK        -0.4790 
     65 C          33.0194  -47.0032  -50.3276 C.2       1 UNK         0.5024 
     66 O          32.1188  -47.8441  -50.2765 O.2       1 UNK        -0.4888 
     67 H67        30.4279  -43.7530  -47.0387 H         1 UNK         0.0892 
     68 H68        30.1108  -45.4807  -46.8578 H         1 UNK         0.0892 
     69 H69        29.4784  -44.6084  -48.2552 H         1 UNK         0.0892 
     70 H70        30.6449  -45.0741  -50.1068 H         1 UNK         0.3107 
     71 H71        33.5215  -44.9089  -50.2124 H         1 UNK         0.0773 
     72 H72        31.8914  -44.1967  -52.0427 H         1 UNK         0.0680 
     73 H73        31.6247  -45.8738  -52.4246 H         1 UNK         0.0680 
     74 H74        33.1741  -42.8679  -53.5150 H         1 UNK         0.0650 
     75 H75        34.4471  -43.3971  -54.5789 H         1 UNK         0.0650 
     76 H76        33.9636  -44.4611  -56.7003 H         1 UNK         0.1397 
     77 H77        29.8845  -44.7990  -57.9799 H         1 UNK         0.1363 
     78 H78        30.7777  -43.6322  -53.9549 H         1 UNK         0.1355 
     79 H79        28.5350  -44.4479  -54.5630 H         1 UNK         0.0707 
     80 H80        28.1373  -44.8673  -56.2044 H         1 UNK         0.0707 
     81 H81        28.1297  -43.2058  -58.1310 H         1 UNK         0.1034 
     82 H82        27.7987  -41.5035  -57.9891 H         1 UNK         0.1034 
     83 H83        25.4820  -41.9742  -57.2183 H         1 UNK         0.0482 
     84 H84        24.7827  -44.4352  -59.4737 H         1 UNK         0.3460 
     85 H85        24.7153  -43.3957  -60.8752 H         1 UNK         0.3460 
     86 H86        26.3245  -44.7748  -57.2384 H         1 UNK         0.2989 
     87 H87        24.6028  -45.8627  -55.2330 H         1 UNK         0.0559 
     88 H88        22.6526  -47.2903  -55.9029 H         1 UNK         0.0848 
     89 H89        22.3062  -46.1903  -57.2364 H         1 UNK         0.0848 
     90 H90        22.1689  -45.6355  -55.5749 H         1 UNK         0.0848 
     91 H91        25.6933  -47.3386  -56.4573 H         1 UNK         0.3144 
     92 H92        25.3953  -48.7007  -59.5843 H         1 UNK         0.0727 
     93 H93        27.7670  -48.1022  -60.1979 H         1 UNK         0.0790 
     94 H94        27.6440  -46.6491  -59.2069 H         1 UNK         0.0790 
     95 H95        26.6247  -46.8381  -60.6233 H         1 UNK         0.0790 
     96 H96        27.5787  -48.6495  -57.6639 H         1 UNK         0.3215 
     97 H97        26.0582  -50.6593  -55.2523 H         1 UNK         0.0863 
     98 H98        27.6937  -52.4967  -55.6942 H         1 UNK         0.0808 
     99 H99        27.8894  -51.9372  -57.3550 H         1 UNK         0.0808 
    100 H100       26.3430  -52.5737  -56.8139 H         1 UNK         0.0808 
    101 H101       28.8288  -50.2350  -55.7722 H         1 UNK         0.3118 
    102 H102       29.1000  -46.8688  -54.7432 H         1 UNK         0.0546 
    103 H103       28.8593  -47.9367  -52.5143 H         1 UNK         0.0828 
    104 H104       30.5601  -47.8155  -52.9354 H         1 UNK         0.0828 
    105 H105       29.7334  -49.3589  -53.0698 H         1 UNK         0.0828 
    106 H106       31.1380  -48.7460  -55.1213 H         1 UNK         0.3005 
    107 H107       31.0387  -49.2966  -58.5882 H         1 UNK         0.1257 
    108 H108       33.3747  -48.2570  -58.6110 H         1 UNK         0.0775 
    109 H109       32.8793  -47.2002  -57.3230 H         1 UNK         0.0775 
    110 H110       33.5363  -45.0206  -58.9536 H         1 UNK         0.0840 
    111 H111       32.1019  -44.2637  -59.5967 H         1 UNK         0.0840 
    112 H112       33.1552  -49.7421  -56.8027 H         1 UNK         0.2987 
    113 H113       31.9539  -52.2271  -54.7372 H         1 UNK         0.0785 
    114 H114       33.7004  -52.8031  -57.1958 H         1 UNK         0.0798 
    115 H115       32.2392  -53.6766  -56.7572 H         1 UNK         0.0798 
    116 H116       33.6480  -53.7610  -55.7145 H         1 UNK         0.0798 
    117 H117       34.6194  -51.4486  -55.3023 H         1 UNK         0.3079 
    118 H118       35.7399  -50.0933  -53.8723 H         1 UNK         0.0794 
    119 H119       34.4080  -47.5332  -54.9368 H         1 UNK         0.0786 
    120 H120       35.3416  -48.6826  -55.8839 H         1 UNK         0.0786 
    121 H121       36.1358  -47.7270  -54.6454 H         1 UNK         0.0786 
    122 H122       34.7137  -47.7717  -52.4709 H         1 UNK         0.3032 
    123 H123       34.1878  -49.2087  -49.3866 H         1 UNK         0.1094 
    124 H124       36.9484  -48.0284  -50.0242 H         1 UNK         0.0794 
    125 H125       36.1850  -48.0639  -48.4336 H         1 UNK         0.0794 
    126 H126       36.6481  -49.5626  -49.2204 H         1 UNK         0.0794 
    127 H127       34.9994  -46.5515  -50.2848 H         1 UNK         0.3016 
@<TRIPOS>BOND
     1    1    2 1    
     2    1   67 1    
     3    1   68 1    
     4    1   69 1    
     5    2    3 2    
     6    2    4 am   BACKBONE|DICT|INTERRES
     7    4    5 1    
     8    4   70 1    
     9    5    6 1    
    10    5   65 1    
    11    5   71 1    
    12    6    7 1    
    13    6   72 1    
    14    6   73 1    
    15    7    8 1    
    16    8    9 1    
    17    8   74 1    
    18    8   75 1    
    19    9   10 ar   
    20    9   14 ar   
    21   10   11 ar   
    22   10   76 1    
    23   11   12 ar   
    24   11   48 1    
    25   12   13 ar   
    26   12   77 1    
    27   13   14 ar   
    28   13   15 1    
    29   14   78 1    
    30   15   16 1    
    31   15   79 1    
    32   15   80 1    
    33   16   17 1    
    34   17   18 1    
    35   17   81 1    
    36   17   82 1    
    37   18   19 1    
    38   18   22 1    
    39   18   83 1    
    40   19   20 am   BACKBONE|DICT|INTERRES
    41   19   21 2    
    42   20   84 1    
    43   20   85 1    
    44   22   23 am   BACKBONE|DICT|INTERRES
    45   22   86 1    
    46   23   24 2    
    47   23   25 1    
    48   25   26 1    
    49   25   27 1    
    50   25   87 1    
    51   26   88 1    
    52   26   89 1    
    53   26   90 1    
    54   27   28 am   BACKBONE|DICT|INTERRES
    55   27   91 1    
    56   28   29 2    
    57   28   30 1    
    58   30   31 1    
    59   30   32 1    
    60   30   92 1    
    61   31   93 1    
    62   31   94 1    
    63   31   95 1    
    64   32   33 am   BACKBONE|DICT|INTERRES
    65   32   96 1    
    66   33   34 2    
    67   33   35 1    
    68   35   36 1    
    69   35   37 1    
    70   35   97 1    
    71   36   98 1    
    72   36   99 1    
    73   36  100 1    
    74   37   38 am   BACKBONE|DICT|INTERRES
    75   37  101 1    
    76   38   39 2    
    77   38   40 1    
    78   40   41 1    
    79   40   42 1    
    80   40  102 1    
    81   41  103 1    
    82   41  104 1    
    83   41  105 1    
    84   42   43 am   BACKBONE|DICT|INTERRES
    85   42  106 1    
    86   43   44 2    
    87   43   45 1    
    88   45   46 1    
    89   45   49 1    
    90   45  107 1    
    91   46   47 1    
    92   46  108 1    
    93   46  109 1    
    94   47   48 1    
    95   48  110 1    
    96   48  111 1    
    97   49   50 am   BACKBONE|DICT|INTERRES
    98   49  112 1    
    99   50   51 2    
   100   50   52 1    
   101   52   53 1    
   102   52   54 1    
   103   52  113 1    
   104   53  114 1    
   105   53  115 1    
   106   53  116 1    
   107   54   55 am   BACKBONE|DICT|INTERRES
   108   54  117 1    
   109   55   56 2    
   110   55   57 1    
   111   57   58 1    
   112   57   59 1    
   113   57  118 1    
   114   58  119 1    
   115   58  120 1    
   116   58  121 1    
   117   59   60 am   BACKBONE|DICT|INTERRES
   118   59  122 1    
   119   60   61 2    
   120   60   62 1    
   121   62   63 1    
   122   62   64 1    
   123   62  123 1    
   124   63  124 1    
   125   63  125 1    
   126   63  126 1    
   127   64   65 am   BACKBONE|DICT|INTERRES
   128   64  127 1    
   129   65   66 2    
@<TRIPOS>SUBSTRUCTURE
     1 UNK         1 GROUP             0       ****    0 ROOT    
