@<TRIPOS>MOLECULE
3R134
127   129    1
SMALL
USER_CHARGES


@<TRIPOS>ATOM
      1 CA         38.5057  -42.4820  -53.1616 C.3       0 UNK        -0.1968 
      2 C          37.9491  -43.7920  -53.7005 C.2       0 UNK         0.4852 
      3 O          38.6839  -44.5542  -54.3312 O.2       0 UNK        -0.5359 
      4 N          36.6570  -44.0547  -53.4642 N.am      1 UNK        -0.4300 
      5 CA         35.9723  -45.2920  -53.8473 C.3       1 UNK         0.0863 
      6 C6         34.4329  -45.1151  -53.7929 C.3       11 UNK        -0.0953 
      7 S7         33.5494  -46.4000  -54.7439 S.3       11 UNK        -0.2369 
      8 C8         32.2496  -45.4224  -55.5750 C.3       11 UNK         0.0226 
      9 C9         31.0684  -44.9858  -54.7025 C.ar      11 UNK        -0.0699 
     10 C10        30.9468  -45.3279  -53.3488 C.ar      11 UNK        -0.0804 
     11 C11        29.8172  -44.9542  -52.6169 C.ar      11 UNK        -0.0871 
     12 C12        28.8089  -44.2157  -53.2374 C.ar      11 UNK        -0.1008 
     13 C13        28.9090  -43.8544  -54.5825 C.ar      11 UNK        -0.0735 
     14 C14        30.0478  -44.2402  -55.3038 C.ar      11 UNK        -0.0945 
     15 C15        27.7404  -43.0788  -55.1917 C.3       11 UNK         0.0169 
     16 S16        27.9366  -42.5329  -56.9227 S.3       11 UNK        -0.2669 
     17 C17        26.2871  -41.7909  -57.2032 C.3       11 UNK        -0.0850 
     18 CA         25.3746  -42.6151  -58.1524 C.3       10 UNK         0.0855 
     19 C          25.7116  -42.3703  -59.6542 C.2       10 UNK         0.5543 
     20 N          26.0342  -43.3813  -60.4514 N.am      10 UNK        -0.7343 
     21 O          25.6604  -41.2311  -60.1119 O.2       10 UNK        -0.5027 
     22 N          25.3086  -44.0275  -57.7469 N.am      10 UNK        -0.4495 
     23 C          24.3093  -44.8723  -58.0263 C.2       10 UNK         0.4903 
     24 O          23.2545  -44.5265  -58.5610 O.2       10 UNK        -0.4860 
     25 CA         24.5363  -46.3533  -57.6484 C.3       9 UNK         0.0227 
     26 CB         23.6233  -47.3123  -58.4402 C.3       9 UNK        -0.1964 
     27 N          25.9359  -46.7943  -57.7488 N.am      9 UNK        -0.4231 
     28 C          26.7348  -46.7114  -58.8261 C.2       9 UNK         0.5014 
     29 O          26.4071  -46.1888  -59.8919 O.2       9 UNK        -0.5270 
     30 CA         28.1429  -47.3083  -58.6907 C.3       8 UNK         0.0284 
     31 CB         29.0338  -46.4148  -57.8147 C.3       8 UNK        -0.1977 
     32 N          28.1230  -48.6663  -58.1494 N.am      8 UNK        -0.4342 
     33 C          27.6134  -49.7346  -58.7797 C.2       8 UNK         0.5039 
     34 O          27.1585  -49.7098  -59.9239 O.2       8 UNK        -0.5547 
     35 CA         27.5963  -51.0544  -57.9943 C.3       7 UNK         0.0281 
     36 CB         28.9715  -51.7397  -58.0338 C.3       7 UNK        -0.1963 
     37 N          27.1831  -50.8445  -56.6063 N.am      7 UNK        -0.4444 
     38 C          25.9138  -50.6520  -56.2211 C.2       7 UNK         0.5104 
     39 O          24.9489  -50.7074  -56.9836 O.2       7 UNK        -0.5100 
     40 CA         25.6737  -50.3483  -54.7320 C.3       6 UNK         0.0396 
     41 CB         25.3256  -51.6374  -53.9712 C.3       6 UNK        -0.1801 
     42 N          26.8117  -49.6941  -54.0804 N.am      6 UNK        -0.4747 
     43 C          27.1867  -48.4259  -54.3006 C.2       6 UNK         0.5012 
     44 O          26.6281  -47.6709  -55.0982 O.2       6 UNK        -0.5003 
     45 CA         28.4268  -47.9433  -53.5286 C.3       5 UNK         0.0782 
     46 C46        28.0657  -47.5767  -52.0621 C.3       11 UNK        -0.0868 
     47 S47        29.5210  -47.1989  -51.0177 S.3       11 UNK        -0.2515 
     48 C48        29.6611  -45.3893  -51.1678 C.3       11 UNK         0.0199 
     49 N          29.5491  -48.8830  -53.6100 N.am      5 UNK        -0.4607 
     50 C          30.1787  -49.2628  -54.7276 C.2       4 UNK         0.5031 
     51 O          29.7531  -49.0205  -55.8572 O.2       4 UNK        -0.5119 
     52 CA         31.5137  -50.0156  -54.5510 C.3       4 UNK         0.0263 
     53 CB         32.3530  -50.0270  -55.8425 C.3       4 UNK        -0.1967 
     54 N          32.3294  -49.4442  -53.4738 N.am      4 UNK        -0.4237 
     55 C          32.2103  -49.7283  -52.1696 C.2       3 UNK         0.4908 
     56 O          31.3664  -50.5095  -51.7277 O.2       3 UNK        -0.5102 
     57 CA         33.1539  -48.9832  -51.2025 C.3       3 UNK         0.0241 
     58 CB         33.2955  -49.6940  -49.8397 C.3       3 UNK        -0.1971 
     59 N          34.4731  -48.6822  -51.7756 N.am      3 UNK        -0.4139 
     60 C          35.3950  -49.5495  -52.2242 C.2       2 UNK         0.5016 
     61 O          35.2521  -50.7728  -52.1960 O.2       2 UNK        -0.5319 
     62 CA         36.6830  -48.9456  -52.8279 C.3       2 UNK         0.0286 
     63 CB         37.3771  -49.9128  -53.8058 C.3       2 UNK        -0.1963 
     64 N          36.4290  -47.6789  -53.5237 N.am      2 UNK        -0.4790 
     65 C          36.4239  -46.4672  -52.9543 C.2       1 UNK         0.5024 
     66 O          36.6766  -46.2759  -51.7626 O.2       1 UNK        -0.4888 
     67 H67        39.3239  -42.6790  -52.4694 H         1 UNK         0.0892 
     68 H68        37.7480  -41.9025  -52.6343 H         1 UNK         0.0892 
     69 H69        38.8898  -41.8727  -53.9793 H         1 UNK         0.0892 
     70 H70        36.1140  -43.4060  -52.9126 H         1 UNK         0.3107 
     71 H71        36.2596  -45.5115  -54.8784 H         1 UNK         0.0773 
     72 H72        34.0660  -45.1092  -52.7645 H         1 UNK         0.0680 
     73 H73        34.1632  -44.1426  -54.2080 H         1 UNK         0.0680 
     74 H74        32.7026  -44.5462  -56.0408 H         1 UNK         0.0650 
     75 H75        31.8596  -46.0332  -56.3894 H         1 UNK         0.0650 
     76 H76        31.7041  -45.9172  -52.8544 H         1 UNK         0.1397 
     77 H77        27.9283  -43.9352  -52.6750 H         1 UNK         0.1363 
     78 H78        30.1441  -43.9828  -56.3484 H         1 UNK         0.1355 
     79 H79        27.5517  -42.1971  -54.5769 H         1 UNK         0.0707 
     80 H80        26.8476  -43.7027  -55.1251 H         1 UNK         0.0707 
     81 H81        26.4223  -40.7729  -57.5740 H         1 UNK         0.1034 
     82 H82        25.7799  -41.6699  -56.2449 H         1 UNK         0.1034 
     83 H83        24.3685  -42.2085  -58.0324 H         1 UNK         0.0482 
     84 H84        26.2393  -43.1930  -61.4192 H         1 UNK         0.3460 
     85 H85        26.0790  -44.3368  -60.1081 H         1 UNK         0.3460 
     86 H86        26.1515  -44.3979  -57.3334 H         1 UNK         0.2989 
     87 H87        24.2701  -46.4396  -56.5940 H         1 UNK         0.0559 
     88 H88        23.8058  -47.2466  -59.5134 H         1 UNK         0.0848 
     89 H89        22.5701  -47.0833  -58.2729 H         1 UNK         0.0848 
     90 H90        23.7797  -48.3479  -58.1374 H         1 UNK         0.0848 
     91 H91        26.3150  -47.2063  -56.8977 H         1 UNK         0.3144 
     92 H92        28.5841  -47.3519  -59.6887 H         1 UNK         0.0727 
     93 H93        30.0591  -46.7834  -57.7973 H         1 UNK         0.0790 
     94 H94        28.6787  -46.3733  -56.7841 H         1 UNK         0.0790 
     95 H95        29.0605  -45.3932  -58.1961 H         1 UNK         0.0790 
     96 H96        28.5552  -48.7976  -57.2361 H         1 UNK         0.3215 
     97 H97        26.8760  -51.7204  -58.4751 H         1 UNK         0.0863 
     98 H98        28.9535  -52.6974  -57.5135 H         1 UNK         0.0808 
     99 H99        29.7450  -51.1234  -57.5776 H         1 UNK         0.0808 
    100 H100       29.2774  -51.9354  -59.0624 H         1 UNK         0.0808 
    101 H101       27.9140  -50.7439  -55.9172 H         1 UNK         0.3118 
    102 H102       24.8154  -49.6756  -54.6696 H         1 UNK         0.0546 
    103 H103       24.4624  -52.1327  -54.4183 H         1 UNK         0.0828 
    104 H104       25.0735  -51.4296  -52.9312 H         1 UNK         0.0828 
    105 H105       26.1510  -52.3503  -53.9821 H         1 UNK         0.0828 
    106 H106       27.3438  -50.2453  -53.4216 H         1 UNK         0.3005 
    107 H107       28.7551  -47.0352  -54.0363 H         1 UNK         0.1257 
    108 H108       27.5401  -48.4035  -51.5806 H         1 UNK         0.0775 
    109 H109       27.3769  -46.7301  -52.0391 H         1 UNK         0.0775 
    110 H110       28.7874  -44.9243  -50.7084 H         1 UNK         0.0840 
    111 H111       30.5257  -45.0506  -50.5953 H         1 UNK         0.0840 
    112 H112       29.9561  -49.1579  -52.7247 H         1 UNK         0.2987 
    113 H113       31.2686  -51.0501  -54.3018 H         1 UNK         0.0785 
    114 H114       32.5741  -49.0165  -56.1883 H         1 UNK         0.0798 
    115 H115       31.8290  -50.5387  -56.6494 H         1 UNK         0.0798 
    116 H116       33.2999  -50.5470  -55.6963 H         1 UNK         0.0798 
    117 H117       33.0082  -48.7493  -53.7516 H         1 UNK         0.3079 
    118 H118       32.6803  -48.0179  -51.0170 H         1 UNK         0.0794 
    119 H119       33.7039  -50.6993  -49.9480 H         1 UNK         0.0786 
    120 H120       32.3280  -49.7879  -49.3447 H         1 UNK         0.0786 
    121 H121       33.9478  -49.1369  -49.1673 H         1 UNK         0.0786 
    122 H122       34.7100  -47.7014  -51.8322 H         1 UNK         0.3032 
    123 H123       37.3664  -48.7688  -51.9939 H         1 UNK         0.1094 
    124 H124       38.2893  -49.4773  -54.2142 H         1 UNK         0.0794 
    125 H125       37.6619  -50.8402  -53.3067 H         1 UNK         0.0794 
    126 H126       36.7272  -50.1774  -54.6408 H         1 UNK         0.0794 
    127 H127       36.1612  -47.7515  -54.4959 H         1 UNK         0.3016 
@<TRIPOS>BOND
     1    1    2 1    
     2    1   67 1    
     3    1   68 1    
     4    1   69 1    
     5    2    3 2    
     6    2    4 am   BACKBONE|DICT|INTERRES
     7    4    5 1    
     8    4   70 1    
     9    5    6 1    
    10    5   65 1    
    11    5   71 1    
    12    6    7 1    
    13    6   72 1    
    14    6   73 1    
    15    7    8 1    
    16    8    9 1    
    17    8   74 1    
    18    8   75 1    
    19    9   10 ar   
    20    9   14 ar   
    21   10   11 ar   
    22   10   76 1    
    23   11   12 ar   
    24   11   48 1    
    25   12   13 ar   
    26   12   77 1    
    27   13   14 ar   
    28   13   15 1    
    29   14   78 1    
    30   15   16 1    
    31   15   79 1    
    32   15   80 1    
    33   16   17 1    
    34   17   18 1    
    35   17   81 1    
    36   17   82 1    
    37   18   19 1    
    38   18   22 1    
    39   18   83 1    
    40   19   20 am   BACKBONE|DICT|INTERRES
    41   19   21 2    
    42   20   84 1    
    43   20   85 1    
    44   22   23 am   BACKBONE|DICT|INTERRES
    45   22   86 1    
    46   23   24 2    
    47   23   25 1    
    48   25   26 1    
    49   25   27 1    
    50   25   87 1    
    51   26   88 1    
    52   26   89 1    
    53   26   90 1    
    54   27   28 am   BACKBONE|DICT|INTERRES
    55   27   91 1    
    56   28   29 2    
    57   28   30 1    
    58   30   31 1    
    59   30   32 1    
    60   30   92 1    
    61   31   93 1    
    62   31   94 1    
    63   31   95 1    
    64   32   33 am   BACKBONE|DICT|INTERRES
    65   32   96 1    
    66   33   34 2    
    67   33   35 1    
    68   35   36 1    
    69   35   37 1    
    70   35   97 1    
    71   36   98 1    
    72   36   99 1    
    73   36  100 1    
    74   37   38 am   BACKBONE|DICT|INTERRES
    75   37  101 1    
    76   38   39 2    
    77   38   40 1    
    78   40   41 1    
    79   40   42 1    
    80   40  102 1    
    81   41  103 1    
    82   41  104 1    
    83   41  105 1    
    84   42   43 am   BACKBONE|DICT|INTERRES
    85   42  106 1    
    86   43   44 2    
    87   43   45 1    
    88   45   46 1    
    89   45   49 1    
    90   45  107 1    
    91   46   47 1    
    92   46  108 1    
    93   46  109 1    
    94   47   48 1    
    95   48  110 1    
    96   48  111 1    
    97   49   50 am   BACKBONE|DICT|INTERRES
    98   49  112 1    
    99   50   51 2    
   100   50   52 1    
   101   52   53 1    
   102   52   54 1    
   103   52  113 1    
   104   53  114 1    
   105   53  115 1    
   106   53  116 1    
   107   54   55 am   BACKBONE|DICT|INTERRES
   108   54  117 1    
   109   55   56 2    
   110   55   57 1    
   111   57   58 1    
   112   57   59 1    
   113   57  118 1    
   114   58  119 1    
   115   58  120 1    
   116   58  121 1    
   117   59   60 am   BACKBONE|DICT|INTERRES
   118   59  122 1    
   119   60   61 2    
   120   60   62 1    
   121   62   63 1    
   122   62   64 1    
   123   62  123 1    
   124   63  124 1    
   125   63  125 1    
   126   63  126 1    
   127   64   65 am   BACKBONE|DICT|INTERRES
   128   64  127 1    
   129   65   66 2    
@<TRIPOS>SUBSTRUCTURE
     1 UNK         1 GROUP             0       ****    0 ROOT    
