@<TRIPOS>MOLECULE
3R134
127   129    1
SMALL
USER_CHARGES


@<TRIPOS>ATOM
      1 CA         36.2127  -47.0982  -53.2998 C.3       0 UNK        -0.1968 
      2 C          34.9228  -46.2941  -53.3354 C.2       0 UNK         0.4852 
      3 O          33.8401  -46.8740  -53.4643 O.2       0 UNK        -0.5359 
      4 N          35.0238  -44.9638  -53.1984 N.am      1 UNK        -0.4300 
      5 CA         33.9217  -43.9934  -53.2965 C.3       1 UNK         0.0863 
      6 C6         34.4076  -42.5785  -53.7170 C.3       11 UNK        -0.0953 
      7 S7         35.4374  -42.5932  -55.2290 S.3       11 UNK        -0.2369 
      8 C8         34.2072  -42.3371  -56.5527 C.3       11 UNK         0.0226 
      9 C9         33.1388  -43.4211  -56.5517 C.ar      11 UNK        -0.0699 
     10 C10        33.4780  -44.7472  -56.8413 C.ar      11 UNK        -0.0804 
     11 C11        32.5246  -45.7659  -56.7416 C.ar      11 UNK        -0.0871 
     12 C12        31.2191  -45.4391  -56.3573 C.ar      11 UNK        -0.1008 
     13 C13        30.8540  -44.1120  -56.1220 C.ar      11 UNK        -0.0735 
     14 C14        31.8198  -43.1068  -56.2120 C.ar      11 UNK        -0.0945 
     15 C15        29.4143  -43.7602  -55.7877 C.3       11 UNK         0.0169 
     16 S16        29.0701  -43.9656  -54.0190 S.3       11 UNK        -0.2669 
     17 C17        27.4257  -43.1827  -53.9109 C.3       11 UNK        -0.0850 
     18 CA         26.2819  -44.1839  -53.6053 C.3       10 UNK         0.0855 
     19 C          24.9874  -43.4162  -53.2008 C.2       10 UNK         0.5543 
     20 N          23.9200  -43.4443  -53.9902 N.am      10 UNK        -0.7343 
     21 O          24.9529  -42.7862  -52.1467 O.2       10 UNK        -0.5027 
     22 N          26.0837  -45.1695  -54.6867 N.am      10 UNK        -0.4495 
     23 C          25.4281  -46.3257  -54.5289 C.2       10 UNK         0.4903 
     24 O          25.0526  -46.7422  -53.4325 O.2       10 UNK        -0.4860 
     25 CA         25.0925  -47.1675  -55.7756 C.3       9 UNK         0.0227 
     26 CB         23.6773  -46.8289  -56.2833 C.3       9 UNK        -0.1964 
     27 N          26.0550  -47.1610  -56.8883 N.am      9 UNK        -0.4231 
     28 C          26.4299  -46.1479  -57.6856 C.2       9 UNK         0.5014 
     29 O          26.1177  -44.9736  -57.4835 O.2       9 UNK        -0.5270 
     30 CA         27.2834  -46.4851  -58.9271 C.3       8 UNK         0.0284 
     31 CB         28.6185  -45.7271  -58.9328 C.3       8 UNK        -0.1977 
     32 N          27.5517  -47.9177  -59.0876 N.am      8 UNK        -0.4342 
     33 C          26.7387  -48.7758  -59.7168 C.2       8 UNK         0.5039 
     34 O          25.6802  -48.4488  -60.2548 O.2       8 UNK        -0.5547 
     35 CA         27.1678  -50.2535  -59.7403 C.3       7 UNK         0.0281 
     36 CB         28.0253  -50.5414  -60.9832 C.3       7 UNK        -0.1963 
     37 N          27.8881  -50.7092  -58.5456 N.am      7 UNK        -0.4444 
     38 C          27.4360  -50.6771  -57.2860 C.2       7 UNK         0.5104 
     39 O          26.3833  -50.1325  -56.9557 O.2       7 UNK        -0.5100 
     40 CA         28.2956  -51.3558  -56.2036 C.3       6 UNK         0.0396 
     41 CB         28.0508  -52.8762  -56.1794 C.3       6 UNK        -0.1801 
     42 N          29.7314  -51.0446  -56.2526 N.am      6 UNK        -0.4747 
     43 C          30.6410  -51.3452  -57.1954 C.2       6 UNK         0.5012 
     44 O          30.3706  -51.9620  -58.2269 O.2       6 UNK        -0.5003 
     45 CA         32.0915  -50.8581  -56.9755 C.3       5 UNK         0.0782 
     46 C46        32.5118  -49.8051  -58.0338 C.3       11 UNK        -0.0868 
     47 S47        31.6620  -48.1936  -57.8689 S.3       11 UNK        -0.2515 
     48 C48        32.9384  -47.2108  -57.0061 C.3       11 UNK         0.0199 
     49 N          32.3213  -50.3613  -55.6170 N.am      5 UNK        -0.4607 
     50 C          32.5578  -51.1150  -54.5372 C.2       4 UNK         0.5031 
     51 O          32.6926  -52.3378  -54.5699 O.2       4 UNK        -0.5119 
     52 CA         32.6354  -50.3731  -53.1897 C.3       4 UNK         0.0263 
     53 CB         34.0996  -50.0958  -52.8190 C.3       4 UNK        -0.1967 
     54 N          31.8729  -49.1151  -53.1730 N.am      4 UNK        -0.4237 
     55 C          30.5319  -49.0592  -53.2390 C.2       3 UNK         0.4908 
     56 O          29.8264  -50.0630  -53.3471 O.2       3 UNK        -0.5102 
     57 CA         29.8653  -47.6706  -53.2378 C.3       3 UNK         0.0241 
     58 CB         28.3751  -47.7272  -52.8448 C.3       3 UNK        -0.1971 
     59 N          30.5787  -46.6695  -52.4404 N.am      3 UNK        -0.4139 
     60 C          30.8025  -46.6668  -51.1160 C.2       2 UNK         0.5016 
     61 O          30.4118  -47.5443  -50.3448 O.2       2 UNK        -0.5319 
     62 CA         31.6427  -45.4904  -50.5845 C.3       2 UNK         0.0286 
     63 CB         32.3110  -45.7882  -49.2296 C.3       2 UNK        -0.1963 
     64 N          32.6677  -45.1771  -51.5743 N.am      2 UNK        -0.4790 
     65 C          33.0010  -43.9777  -52.0536 C.2       1 UNK         0.5024 
     66 O          32.5947  -42.9160  -51.5795 O.2       1 UNK        -0.4888 
     67 H67        37.0904  -46.4574  -53.2185 H         1 UNK         0.0892 
     68 H68        36.2079  -47.7774  -52.4480 H         1 UNK         0.0892 
     69 H69        36.3090  -47.6892  -54.2099 H         1 UNK         0.0892 
     70 H70        35.9377  -44.5537  -53.0703 H         1 UNK         0.3107 
     71 H71        33.2680  -44.3548  -54.0883 H         1 UNK         0.0773 
     72 H72        33.5589  -41.9119  -53.8814 H         1 UNK         0.0680 
     73 H73        34.9963  -42.1292  -52.9155 H         1 UNK         0.0680 
     74 H74        34.7179  -42.3364  -57.5165 H         1 UNK         0.0650 
     75 H75        33.7618  -41.3476  -56.4382 H         1 UNK         0.0650 
     76 H76        34.4997  -44.9875  -57.1021 H         1 UNK         0.1397 
     77 H77        30.4768  -46.2163  -56.2542 H         1 UNK         0.1363 
     78 H78        31.5471  -42.0821  -55.9991 H         1 UNK         0.1355 
     79 H79        28.7295  -44.3897  -56.3553 H         1 UNK         0.0707 
     80 H80        29.2078  -42.7312  -56.0861 H         1 UNK         0.0707 
     81 H81        27.4951  -42.4323  -53.1207 H         1 UNK         0.1034 
     82 H82        27.2055  -42.6269  -54.8240 H         1 UNK         0.1034 
     83 H83        26.5774  -44.7378  -52.7123 H         1 UNK         0.0482 
     84 H84        23.9431  -43.9494  -54.8609 H         1 UNK         0.3460 
     85 H85        23.0882  -42.9459  -53.7153 H         1 UNK         0.3460 
     86 H86        26.2999  -44.8764  -55.6357 H         1 UNK         0.2989 
     87 H87        25.0697  -48.2036  -55.4342 H         1 UNK         0.0559 
     88 H88        22.9423  -46.9141  -55.4816 H         1 UNK         0.0848 
     89 H89        23.6158  -45.8125  -56.6731 H         1 UNK         0.0848 
     90 H90        23.3689  -47.5102  -57.0765 H         1 UNK         0.0848 
     91 H91        26.3803  -48.0891  -57.1391 H         1 UNK         0.3144 
     92 H92        26.7124  -46.1340  -59.7894 H         1 UNK         0.0727 
     93 H93        29.2767  -46.0823  -58.1450 H         1 UNK         0.0790 
     94 H94        28.4723  -44.6555  -58.7911 H         1 UNK         0.0790 
     95 H95        29.1408  -45.8564  -59.8809 H         1 UNK         0.0790 
     96 H96        28.4063  -48.2754  -58.6841 H         1 UNK         0.3215 
     97 H97        26.2557  -50.8499  -59.8101 H         1 UNK         0.0863 
     98 H98        27.5098  -50.2346  -61.8945 H         1 UNK         0.0808 
     99 H99        28.9760  -50.0076  -60.9496 H         1 UNK         0.0808 
    100 H100       28.2419  -51.6057  -61.0783 H         1 UNK         0.0808 
    101 H101       28.7778  -51.1821  -58.6924 H         1 UNK         0.3118 
    102 H102       27.9506  -50.9603  -55.2468 H         1 UNK         0.0546 
    103 H103       26.9912  -53.0968  -56.0438 H         1 UNK         0.0828 
    104 H104       28.5870  -53.3494  -55.3568 H         1 UNK         0.0828 
    105 H105       28.3647  -53.3584  -57.1055 H         1 UNK         0.0828 
    106 H106       30.0670  -50.5566  -55.4307 H         1 UNK         0.3005 
    107 H107       32.7224  -51.7379  -57.1237 H         1 UNK         0.1257 
    108 H108       32.3306  -50.1833  -59.0419 H         1 UNK         0.0775 
    109 H109       33.5900  -49.6474  -57.9799 H         1 UNK         0.0775 
    110 H110       33.1841  -47.6776  -56.0522 H         1 UNK         0.0840 
    111 H111       33.8498  -47.2321  -57.6059 H         1 UNK         0.0840 
    112 H112       32.2287  -49.3649  -55.4922 H         1 UNK         0.2987 
    113 H113       32.2102  -51.0298  -52.4276 H         1 UNK         0.0785 
    114 H114       34.6557  -51.0277  -52.7083 H         1 UNK         0.0798 
    115 H115       34.1787  -49.5556  -51.8754 H         1 UNK         0.0798 
    116 H116       34.6014  -49.5099  -53.5889 H         1 UNK         0.0798 
    117 H117       32.4134  -48.2552  -53.1372 H         1 UNK         0.3079 
    118 H118       29.9117  -47.3186  -54.2681 H         1 UNK         0.0794 
    119 H119       27.8028  -48.3259  -53.5546 H         1 UNK         0.0786 
    120 H120       27.9345  -46.7317  -52.8323 H         1 UNK         0.0786 
    121 H121       28.2322  -48.1675  -51.8576 H         1 UNK         0.0786 
    122 H122       30.9433  -45.8865  -52.9658 H         1 UNK         0.3032 
    123 H123       30.9643  -44.6421  -50.4670 H         1 UNK         0.1094 
    124 H124       32.9068  -44.9416  -48.8884 H         1 UNK         0.0794 
    125 H125       31.5647  -45.9896  -48.4601 H         1 UNK         0.0794 
    126 H126       32.9663  -46.6581  -49.2879 H         1 UNK         0.0794 
    127 H127       33.0622  -45.9752  -52.0697 H         1 UNK         0.3016 
@<TRIPOS>BOND
     1    1    2 1    
     2    1   67 1    
     3    1   68 1    
     4    1   69 1    
     5    2    3 2    
     6    2    4 am   BACKBONE|DICT|INTERRES
     7    4    5 1    
     8    4   70 1    
     9    5    6 1    
    10    5   65 1    
    11    5   71 1    
    12    6    7 1    
    13    6   72 1    
    14    6   73 1    
    15    7    8 1    
    16    8    9 1    
    17    8   74 1    
    18    8   75 1    
    19    9   10 ar   
    20    9   14 ar   
    21   10   11 ar   
    22   10   76 1    
    23   11   12 ar   
    24   11   48 1    
    25   12   13 ar   
    26   12   77 1    
    27   13   14 ar   
    28   13   15 1    
    29   14   78 1    
    30   15   16 1    
    31   15   79 1    
    32   15   80 1    
    33   16   17 1    
    34   17   18 1    
    35   17   81 1    
    36   17   82 1    
    37   18   19 1    
    38   18   22 1    
    39   18   83 1    
    40   19   20 am   BACKBONE|DICT|INTERRES
    41   19   21 2    
    42   20   84 1    
    43   20   85 1    
    44   22   23 am   BACKBONE|DICT|INTERRES
    45   22   86 1    
    46   23   24 2    
    47   23   25 1    
    48   25   26 1    
    49   25   27 1    
    50   25   87 1    
    51   26   88 1    
    52   26   89 1    
    53   26   90 1    
    54   27   28 am   BACKBONE|DICT|INTERRES
    55   27   91 1    
    56   28   29 2    
    57   28   30 1    
    58   30   31 1    
    59   30   32 1    
    60   30   92 1    
    61   31   93 1    
    62   31   94 1    
    63   31   95 1    
    64   32   33 am   BACKBONE|DICT|INTERRES
    65   32   96 1    
    66   33   34 2    
    67   33   35 1    
    68   35   36 1    
    69   35   37 1    
    70   35   97 1    
    71   36   98 1    
    72   36   99 1    
    73   36  100 1    
    74   37   38 am   BACKBONE|DICT|INTERRES
    75   37  101 1    
    76   38   39 2    
    77   38   40 1    
    78   40   41 1    
    79   40   42 1    
    80   40  102 1    
    81   41  103 1    
    82   41  104 1    
    83   41  105 1    
    84   42   43 am   BACKBONE|DICT|INTERRES
    85   42  106 1    
    86   43   44 2    
    87   43   45 1    
    88   45   46 1    
    89   45   49 1    
    90   45  107 1    
    91   46   47 1    
    92   46  108 1    
    93   46  109 1    
    94   47   48 1    
    95   48  110 1    
    96   48  111 1    
    97   49   50 am   BACKBONE|DICT|INTERRES
    98   49  112 1    
    99   50   51 2    
   100   50   52 1    
   101   52   53 1    
   102   52   54 1    
   103   52  113 1    
   104   53  114 1    
   105   53  115 1    
   106   53  116 1    
   107   54   55 am   BACKBONE|DICT|INTERRES
   108   54  117 1    
   109   55   56 2    
   110   55   57 1    
   111   57   58 1    
   112   57   59 1    
   113   57  118 1    
   114   58  119 1    
   115   58  120 1    
   116   58  121 1    
   117   59   60 am   BACKBONE|DICT|INTERRES
   118   59  122 1    
   119   60   61 2    
   120   60   62 1    
   121   62   63 1    
   122   62   64 1    
   123   62  123 1    
   124   63  124 1    
   125   63  125 1    
   126   63  126 1    
   127   64   65 am   BACKBONE|DICT|INTERRES
   128   64  127 1    
   129   65   66 2    
@<TRIPOS>SUBSTRUCTURE
     1 UNK         1 GROUP             0       ****    0 ROOT    
