@<TRIPOS>MOLECULE
3R134
127   129    1
SMALL
USER_CHARGES


@<TRIPOS>ATOM
      1 CA         34.5219  -44.6387  -58.4420 C.3       0 UNK        -0.1968 
      2 C          34.0522  -44.4535  -57.0063 C.2       0 UNK         0.4852 
      3 O          33.4409  -43.4320  -56.6941 O.2       0 UNK        -0.5359 
      4 N          34.3237  -45.4386  -56.1437 N.am      1 UNK        -0.4300 
      5 CA         33.9425  -45.4802  -54.7337 C.3       1 UNK         0.0863 
      6 C6         34.6995  -44.4180  -53.8774 C.3       11 UNK        -0.0953 
      7 S7         34.1321  -44.2719  -52.1456 S.3       11 UNK        -0.2369 
      8 C8         32.8641  -42.9703  -52.2486 C.3       11 UNK         0.0226 
      9 C9         31.5444  -43.5146  -52.7731 C.ar      11 UNK        -0.0699 
     10 C10        30.7191  -44.2755  -51.9375 C.ar      11 UNK        -0.0804 
     11 C11        29.5064  -44.7845  -52.4109 C.ar      11 UNK        -0.0871 
     12 C12        29.1258  -44.5255  -53.7302 C.ar      11 UNK        -0.1008 
     13 C13        29.9434  -43.7745  -54.5770 C.ar      11 UNK        -0.0735 
     14 C14        31.1478  -43.2610  -54.0897 C.ar      11 UNK        -0.0945 
     15 C15        29.5436  -43.5607  -56.0289 C.3       11 UNK         0.0169 
     16 S16        28.6703  -41.9838  -56.3028 S.3       11 UNK        -0.2669 
     17 C17        27.0798  -42.2116  -55.4213 C.3       11 UNK        -0.0850 
     18 CA         25.8991  -42.7032  -56.3027 C.3       10 UNK         0.0855 
     19 C          25.4091  -41.6099  -57.2967 C.2       10 UNK         0.5543 
     20 N          24.6775  -40.6172  -56.8085 N.am      10 UNK        -0.7343 
     21 O          25.7016  -41.6369  -58.4912 O.2       10 UNK        -0.5027 
     22 N          26.2043  -43.9883  -56.9474 N.am      10 UNK        -0.4495 
     23 C          25.3065  -44.7793  -57.5478 C.2       10 UNK         0.4903 
     24 O          24.0896  -44.5951  -57.5046 O.2       10 UNK        -0.4860 
     25 CA         25.8664  -45.9726  -58.3377 C.3       9 UNK         0.0227 
     26 CB         27.0637  -45.5796  -59.2215 C.3       9 UNK        -0.1964 
     27 N          26.2376  -47.0767  -57.4504 N.am      9 UNK        -0.4231 
     28 C          25.3707  -47.9741  -56.9611 C.2       9 UNK         0.5014 
     29 O          24.1582  -47.9470  -57.1852 O.2       9 UNK        -0.5270 
     30 CA         25.9655  -49.1054  -56.0962 C.3       8 UNK         0.0284 
     31 CB         24.9225  -50.1679  -55.6911 C.3       8 UNK        -0.1977 
     32 N          27.1334  -49.7541  -56.7052 N.am      8 UNK        -0.4342 
     33 C          27.2406  -50.3070  -57.9235 C.2       8 UNK         0.5039 
     34 O          26.3210  -50.3783  -58.7412 O.2       8 UNK        -0.5547 
     35 CA         28.6322  -50.8744  -58.2697 C.3       7 UNK         0.0281 
     36 CB         28.7454  -51.3936  -59.7197 C.3       7 UNK        -0.1963 
     37 N          29.7015  -49.9184  -57.9510 N.am      7 UNK        -0.4444 
     38 C          29.9194  -48.7176  -58.5093 C.2       7 UNK         0.5104 
     39 O          29.3115  -48.2895  -59.4905 O.2       7 UNK        -0.5100 
     40 CA         30.9900  -47.8413  -57.8216 C.3       6 UNK         0.0396 
     41 CB         30.9643  -46.3788  -58.3052 C.3       6 UNK        -0.1801 
     42 N          30.9175  -47.8967  -56.3549 N.am      6 UNK        -0.4747 
     43 C          29.8538  -47.6062  -55.5864 C.2       6 UNK         0.5012 
     44 O          28.7901  -47.1678  -56.0320 O.2       6 UNK        -0.5003 
     45 CA         30.0064  -47.9188  -54.0783 C.3       5 UNK         0.0782 
     46 C46        28.6785  -47.8109  -53.2731 C.3       11 UNK        -0.0868 
     47 S47        29.0172  -47.3855  -51.5328 S.3       11 UNK        -0.2515 
     48 C48        28.6033  -45.6090  -51.5013 C.3       11 UNK         0.0199 
     49 N          30.6806  -49.2068  -53.8498 N.am      5 UNK        -0.4607 
     50 C          30.2646  -50.4044  -54.2956 C.2       4 UNK         0.5031 
     51 O          29.2568  -50.5546  -54.9861 O.2       4 UNK        -0.5119 
     52 CA         31.1149  -51.6470  -53.9763 C.3       4 UNK         0.0263 
     53 CB         31.8837  -52.0937  -55.2311 C.3       4 UNK        -0.1967 
     54 N          32.0659  -51.4400  -52.8865 N.am      4 UNK        -0.4237 
     55 C          31.7466  -51.3643  -51.5867 C.2       3 UNK         0.4908 
     56 O          30.6181  -51.5789  -51.1437 O.2       3 UNK        -0.5102 
     57 CA         32.8762  -50.9607  -50.6177 C.3       3 UNK         0.0241 
     58 CB         33.4430  -52.2000  -49.9057 C.3       3 UNK        -0.1971 
     59 N          33.9758  -50.2244  -51.2579 N.am      3 UNK        -0.4139 
     60 C          33.8475  -49.0355  -51.8651 C.2       2 UNK         0.5016 
     61 O          32.7818  -48.4169  -51.9117 O.2       2 UNK        -0.5319 
     62 CA         35.1116  -48.4713  -52.5434 C.3       2 UNK         0.0286 
     63 CB         35.7599  -49.4876  -53.5108 C.3       2 UNK        -0.1963 
     64 N          34.8677  -47.1913  -53.2219 N.am      2 UNK        -0.4790 
     65 C          34.0916  -46.9487  -54.2888 C.2       1 UNK         0.5024 
     66 O          33.5089  -47.8253  -54.9343 O.2       1 UNK        -0.4888 
     67 H67        34.9897  -45.6108  -58.5973 H         1 UNK         0.0892 
     68 H68        33.6784  -44.5561  -59.1268 H         1 UNK         0.0892 
     69 H69        35.2470  -43.8675  -58.7006 H         1 UNK         0.0892 
     70 H70        34.7846  -46.2779  -56.4703 H         1 UNK         0.3107 
     71 H71        32.8742  -45.2691  -54.6834 H         1 UNK         0.0773 
     72 H72        35.7705  -44.6279  -53.8734 H         1 UNK         0.0680 
     73 H73        34.6068  -43.4325  -54.3342 H         1 UNK         0.0680 
     74 H74        32.7084  -42.5559  -51.2516 H         1 UNK         0.0650 
     75 H75        33.2240  -42.1464  -52.8668 H         1 UNK         0.0650 
     76 H76        31.0267  -44.4777  -50.9204 H         1 UNK         0.1397 
     77 H77        28.1937  -44.9194  -54.1093 H         1 UNK         0.1363 
     78 H78        31.7862  -42.6825  -54.7439 H         1 UNK         0.1355 
     79 H79        30.4388  -43.5732  -56.6531 H         1 UNK         0.0707 
     80 H80        28.9293  -44.3913  -56.3754 H         1 UNK         0.0707 
     81 H81        26.8241  -41.2586  -54.9545 H         1 UNK         0.1034 
     82 H82        27.2119  -42.8920  -54.5836 H         1 UNK         0.1034 
     83 H83        25.0622  -42.8966  -55.6282 H         1 UNK         0.0482 
     84 H84        24.4297  -40.5799  -55.8319 H         1 UNK         0.3460 
     85 H85        24.3579  -39.8929  -57.4327 H         1 UNK         0.3460 
     86 H86        27.1832  -44.1895  -57.0721 H         1 UNK         0.2989 
     87 H87        25.0770  -46.3158  -59.0101 H         1 UNK         0.0559 
     88 H88        27.9287  -45.2763  -58.6358 H         1 UNK         0.0848 
     89 H89        26.8066  -44.7474  -59.8785 H         1 UNK         0.0848 
     90 H90        27.3694  -46.4096  -59.8586 H         1 UNK         0.0848 
     91 H91        27.2105  -47.1437  -57.1599 H         1 UNK         0.3144 
     92 H92        26.3233  -48.6300  -55.1821 H         1 UNK         0.0727 
     93 H93        25.3601  -50.9229  -55.0379 H         1 UNK         0.0790 
     94 H94        24.5079  -50.6770  -56.5619 H         1 UNK         0.0790 
     95 H95        24.0908  -49.7151  -55.1500 H         1 UNK         0.0790 
     96 H96        27.9544  -49.8130  -56.1055 H         1 UNK         0.3215 
     97 H97        28.7814  -51.7291  -57.6076 H         1 UNK         0.0863 
     98 H98        29.7398  -51.7906  -59.9232 H         1 UNK         0.0808 
     99 H99        28.5383  -50.6125  -60.4515 H         1 UNK         0.0808 
    100 H100       28.0318  -52.1987  -59.8989 H         1 UNK         0.0808 
    101 H101       30.2304  -50.1347  -57.1177 H         1 UNK         0.3118 
    102 H102       31.9573  -48.2638  -58.0970 H         1 UNK         0.0546 
    103 H103       30.0017  -45.9107  -58.1147 H         1 UNK         0.0828 
    104 H104       31.1552  -46.3132  -59.3769 H         1 UNK         0.0828 
    105 H105       31.7201  -45.7835  -57.8002 H         1 UNK         0.0828 
    106 H106       31.7670  -48.1971  -55.8839 H         1 UNK         0.3005 
    107 H107       30.6907  -47.1499  -53.7136 H         1 UNK         0.1257 
    108 H108       27.9904  -47.0725  -53.6805 H         1 UNK         0.0775 
    109 H109       28.1246  -48.7500  -53.2995 H         1 UNK         0.0775 
    110 H110       27.5573  -45.4752  -51.7817 H         1 UNK         0.0840 
    111 H111       28.6868  -45.2480  -50.4751 H         1 UNK         0.0840 
    112 H112       31.5130  -49.1506  -53.2703 H         1 UNK         0.2987 
    113 H113       30.4288  -52.4468  -53.6893 H         1 UNK         0.0785 
    114 H114       32.4519  -53.0053  -55.0445 H         1 UNK         0.0798 
    115 H115       32.5805  -51.3272  -55.5737 H         1 UNK         0.0798 
    116 H116       31.2003  -52.3065  -56.0545 H         1 UNK         0.0798 
    117 H117       33.0239  -51.2640  -53.1495 H         1 UNK         0.3079 
    118 H118       32.4336  -50.3043  -49.8653 H         1 UNK         0.0794 
    119 H119       32.6526  -52.7530  -49.3960 H         1 UNK         0.0786 
    120 H120       34.1790  -51.9231  -49.1506 H         1 UNK         0.0786 
    121 H121       33.9204  -52.8862  -50.6066 H         1 UNK         0.0786 
    122 H122       34.8830  -50.6684  -51.2424 H         1 UNK         0.3032 
    123 H123       35.8240  -48.2592  -51.7441 H         1 UNK         0.1094 
    124 H124       36.1436  -50.3587  -52.9793 H         1 UNK         0.0794 
    125 H125       35.0543  -49.8494  -54.2595 H         1 UNK         0.0794 
    126 H126       36.6045  -49.0449  -54.0390 H         1 UNK         0.0794 
    127 H127       35.2320  -46.3779  -52.7423 H         1 UNK         0.3016 
@<TRIPOS>BOND
     1    1    2 1    
     2    1   67 1    
     3    1   68 1    
     4    1   69 1    
     5    2    3 2    
     6    2    4 am   BACKBONE|DICT|INTERRES
     7    4    5 1    
     8    4   70 1    
     9    5    6 1    
    10    5   65 1    
    11    5   71 1    
    12    6    7 1    
    13    6   72 1    
    14    6   73 1    
    15    7    8 1    
    16    8    9 1    
    17    8   74 1    
    18    8   75 1    
    19    9   10 ar   
    20    9   14 ar   
    21   10   11 ar   
    22   10   76 1    
    23   11   12 ar   
    24   11   48 1    
    25   12   13 ar   
    26   12   77 1    
    27   13   14 ar   
    28   13   15 1    
    29   14   78 1    
    30   15   16 1    
    31   15   79 1    
    32   15   80 1    
    33   16   17 1    
    34   17   18 1    
    35   17   81 1    
    36   17   82 1    
    37   18   19 1    
    38   18   22 1    
    39   18   83 1    
    40   19   20 am   BACKBONE|DICT|INTERRES
    41   19   21 2    
    42   20   84 1    
    43   20   85 1    
    44   22   23 am   BACKBONE|DICT|INTERRES
    45   22   86 1    
    46   23   24 2    
    47   23   25 1    
    48   25   26 1    
    49   25   27 1    
    50   25   87 1    
    51   26   88 1    
    52   26   89 1    
    53   26   90 1    
    54   27   28 am   BACKBONE|DICT|INTERRES
    55   27   91 1    
    56   28   29 2    
    57   28   30 1    
    58   30   31 1    
    59   30   32 1    
    60   30   92 1    
    61   31   93 1    
    62   31   94 1    
    63   31   95 1    
    64   32   33 am   BACKBONE|DICT|INTERRES
    65   32   96 1    
    66   33   34 2    
    67   33   35 1    
    68   35   36 1    
    69   35   37 1    
    70   35   97 1    
    71   36   98 1    
    72   36   99 1    
    73   36  100 1    
    74   37   38 am   BACKBONE|DICT|INTERRES
    75   37  101 1    
    76   38   39 2    
    77   38   40 1    
    78   40   41 1    
    79   40   42 1    
    80   40  102 1    
    81   41  103 1    
    82   41  104 1    
    83   41  105 1    
    84   42   43 am   BACKBONE|DICT|INTERRES
    85   42  106 1    
    86   43   44 2    
    87   43   45 1    
    88   45   46 1    
    89   45   49 1    
    90   45  107 1    
    91   46   47 1    
    92   46  108 1    
    93   46  109 1    
    94   47   48 1    
    95   48  110 1    
    96   48  111 1    
    97   49   50 am   BACKBONE|DICT|INTERRES
    98   49  112 1    
    99   50   51 2    
   100   50   52 1    
   101   52   53 1    
   102   52   54 1    
   103   52  113 1    
   104   53  114 1    
   105   53  115 1    
   106   53  116 1    
   107   54   55 am   BACKBONE|DICT|INTERRES
   108   54  117 1    
   109   55   56 2    
   110   55   57 1    
   111   57   58 1    
   112   57   59 1    
   113   57  118 1    
   114   58  119 1    
   115   58  120 1    
   116   58  121 1    
   117   59   60 am   BACKBONE|DICT|INTERRES
   118   59  122 1    
   119   60   61 2    
   120   60   62 1    
   121   62   63 1    
   122   62   64 1    
   123   62  123 1    
   124   63  124 1    
   125   63  125 1    
   126   63  126 1    
   127   64   65 am   BACKBONE|DICT|INTERRES
   128   64  127 1    
   129   65   66 2    
@<TRIPOS>SUBSTRUCTURE
     1 UNK         1 GROUP             0       ****    0 ROOT    
