@<TRIPOS>MOLECULE
3R134
127   129    1
SMALL
USER_CHARGES


@<TRIPOS>ATOM
      1 CA         33.2450  -42.7837  -47.4149 C.3       0 UNK        -0.1968 
      2 C          33.7723  -43.4643  -48.6696 C.2       0 UNK         0.4852 
      3 O          34.2578  -44.5936  -48.5928 O.2       0 UNK        -0.5359 
      4 N          33.6859  -42.7832  -49.8209 N.am      1 UNK        -0.4300 
      5 CA         34.1112  -43.2941  -51.1302 C.3       1 UNK         0.0863 
      6 C6         34.2665  -42.1381  -52.1546 C.3       11 UNK        -0.0953 
      7 S7         35.4590  -42.5150  -53.4835 S.3       11 UNK        -0.2369 
      8 C8         34.4874  -42.1862  -54.9907 C.3       11 UNK         0.0226 
      9 C9         33.5490  -43.3325  -55.3441 C.ar      11 UNK        -0.0699 
     10 C10        34.0638  -44.5119  -55.8935 C.ar      11 UNK        -0.0804 
     11 C11        33.2119  -45.5647  -56.2412 C.ar      11 UNK        -0.0871 
     12 C12        31.8370  -45.4336  -56.0294 C.ar      11 UNK        -0.1008 
     13 C13        31.3081  -44.2562  -55.4950 C.ar      11 UNK        -0.0735 
     14 C14        32.1684  -43.2074  -55.1531 C.ar      11 UNK        -0.0945 
     15 C15        29.8120  -44.1419  -55.2493 C.3       11 UNK         0.0169 
     16 S16        28.8851  -43.8567  -56.7858 S.3       11 UNK        -0.2669 
     17 C17        27.1844  -43.5863  -56.1655 C.3       11 UNK        -0.0850 
     18 CA         26.6903  -44.5807  -55.0762 C.3       10 UNK         0.0855 
     19 C          25.2505  -44.2126  -54.6081 C.2       10 UNK         0.5543 
     20 N          24.2423  -45.0575  -54.7914 N.am      10 UNK        -0.7343 
     21 O          25.0470  -43.1320  -54.0606 O.2       10 UNK        -0.5027 
     22 N          26.8544  -45.9798  -55.4998 N.am      10 UNK        -0.4495 
     23 C          26.8788  -47.0358  -54.6754 C.2       10 UNK         0.4903 
     24 O          26.9078  -46.9388  -53.4479 O.2       10 UNK        -0.4860 
     25 CA         26.8577  -48.4321  -55.3355 C.3       9 UNK         0.0227 
     26 CB         26.2383  -49.5114  -54.4247 C.3       9 UNK        -0.1964 
     27 N          26.2402  -48.4627  -56.6692 N.am      9 UNK        -0.4231 
     28 C          24.9998  -48.0723  -57.0082 C.2       9 UNK         0.5014 
     29 O          24.1774  -47.6472  -56.1957 O.2       9 UNK        -0.5270 
     30 CA         24.6214  -48.0848  -58.5029 C.3       8 UNK         0.0284 
     31 CB         24.3328  -46.6534  -58.9901 C.3       8 UNK        -0.1977 
     32 N          25.6582  -48.6677  -59.3587 N.am      8 UNK        -0.4342 
     33 C          25.8016  -49.9754  -59.6095 C.2       8 UNK         0.5039 
     34 O          25.0249  -50.8415  -59.2063 O.2       8 UNK        -0.5547 
     35 CA         27.0420  -50.3886  -60.4252 C.3       7 UNK         0.0281 
     36 CB         26.7071  -50.4395  -61.9248 C.3       7 UNK        -0.1963 
     37 N          28.2154  -49.5273  -60.2143 N.am      7 UNK        -0.4444 
     38 C          28.8329  -49.3598  -59.0373 C.2       7 UNK         0.5104 
     39 O          28.4392  -49.8603  -57.9821 O.2       7 UNK        -0.5100 
     40 CA         30.0511  -48.4293  -59.0144 C.3       6 UNK         0.0396 
     41 CB         29.6284  -47.0203  -58.5703 C.3       6 UNK        -0.1801 
     42 N          31.0248  -48.9621  -58.0643 N.am      6 UNK        -0.4747 
     43 C          32.0691  -49.7365  -58.3934 C.2       6 UNK         0.5012 
     44 O          32.4390  -49.9306  -59.5521 O.2       6 UNK        -0.5003 
     45 CA         32.8094  -50.4434  -57.2363 C.3       5 UNK         0.0782 
     46 C46        34.0621  -49.6488  -56.7764 C.3       11 UNK        -0.0868 
     47 S47        33.6995  -48.2244  -55.6874 S.3       11 UNK        -0.2515 
     48 C48        33.7636  -46.8386  -56.8626 C.3       11 UNK         0.0199 
     49 N          31.9082  -50.7472  -56.1213 N.am      5 UNK        -0.4607 
     50 C          30.8867  -51.6122  -56.1527 C.2       4 UNK         0.5031 
     51 O          30.7179  -52.4128  -57.0732 O.2       4 UNK        -0.5119 
     52 CA         29.8752  -51.5759  -54.9823 C.3       4 UNK         0.0263 
     53 CB         29.4724  -52.9939  -54.5386 C.3       4 UNK        -0.1967 
     54 N          30.3028  -50.8160  -53.7981 N.am      4 UNK        -0.4237 
     55 C          30.4570  -49.4879  -53.7242 C.2       3 UNK         0.4908 
     56 O          30.2947  -48.7250  -54.6820 O.2       3 UNK        -0.5102 
     57 CA         30.9232  -48.9298  -52.3738 C.3       3 UNK         0.0241 
     58 CB         32.3618  -49.3815  -52.0475 C.3       3 UNK        -0.1971 
     59 N          30.8571  -47.4784  -52.4625 N.am      3 UNK        -0.4139 
     60 C          30.9308  -46.5982  -51.4618 C.2       2 UNK         0.5016 
     61 O          31.0618  -46.8961  -50.2723 O.2       2 UNK        -0.5319 
     62 CA         30.7996  -45.1246  -51.8732 C.3       2 UNK         0.0286 
     63 CB         29.4311  -44.5529  -51.4686 C.3       2 UNK        -0.1963 
     64 N          31.8664  -44.2724  -51.3507 N.am      2 UNK        -0.4790 
     65 C          33.1667  -44.3930  -51.6636 C.2       1 UNK         0.5024 
     66 O          33.6261  -45.3045  -52.3517 O.2       1 UNK        -0.4888 
     67 H67        34.0415  -42.6871  -46.6776 H         1 UNK         0.0892 
     68 H68        32.8539  -41.7879  -47.6230 H         1 UNK         0.0892 
     69 H69        32.4438  -43.3773  -46.9753 H         1 UNK         0.0892 
     70 H70        33.2921  -41.8527  -49.8164 H         1 UNK         0.3107 
     71 H71        35.0911  -43.7553  -50.9851 H         1 UNK         0.0773 
     72 H72        33.3022  -41.8456  -52.5747 H         1 UNK         0.0680 
     73 H73        34.6499  -41.2473  -51.6545 H         1 UNK         0.0680 
     74 H74        35.1793  -42.0290  -55.8194 H         1 UNK         0.0650 
     75 H75        33.9385  -41.2502  -54.8764 H         1 UNK         0.0650 
     76 H76        35.1298  -44.6069  -56.0482 H         1 UNK         0.1397 
     77 H77        31.1782  -46.2540  -56.2772 H         1 UNK         0.1363 
     78 H78        31.7642  -42.2964  -54.7337 H         1 UNK         0.1355 
     79 H79        29.5996  -43.3379  -54.5427 H         1 UNK         0.0707 
     80 H80        29.4621  -45.0676  -54.7920 H         1 UNK         0.0707 
     81 H81        27.1374  -42.5637  -55.7856 H         1 UNK         0.1034 
     82 H82        26.5131  -43.6117  -57.0259 H         1 UNK         0.1034 
     83 H83        27.3089  -44.4356  -54.1896 H         1 UNK         0.0482 
     84 H84        23.3223  -44.7957  -54.4759 H         1 UNK         0.3460 
     85 H85        24.3787  -45.9576  -55.2411 H         1 UNK         0.3460 
     86 H86        26.8409  -46.1453  -56.4938 H         1 UNK         0.2989 
     87 H87        27.8996  -48.7011  -55.4978 H         1 UNK         0.0559 
     88 H88        25.2005  -49.2841  -54.1793 H         1 UNK         0.0848 
     89 H89        26.7867  -49.5939  -53.4855 H         1 UNK         0.0848 
     90 H90        26.2657  -50.4924  -54.8990 H         1 UNK         0.0848 
     91 H91        26.8377  -48.8509  -57.3925 H         1 UNK         0.3144 
     92 H92        23.7039  -48.6692  -58.6001 H         1 UNK         0.0727 
     93 H93        24.0155  -46.6461  -60.0331 H         1 UNK         0.0790 
     94 H94        25.2081  -46.0088  -58.9002 H         1 UNK         0.0790 
     95 H95        23.5310  -46.1949  -58.4092 H         1 UNK         0.0790 
     96 H96        26.3353  -48.0315  -59.7543 H         1 UNK         0.3215 
     97 H97        27.3158  -51.3958  -60.1031 H         1 UNK         0.0863 
     98 H98        27.5422  -50.8313  -62.5059 H         1 UNK         0.0808 
     99 H99        26.4556  -49.4537  -62.3179 H         1 UNK         0.0808 
    100 H100       25.8526  -51.0918  -62.1113 H         1 UNK         0.0808 
    101 H101       28.5959  -49.0710  -61.0318 H         1 UNK         0.3118 
    102 H102       30.4821  -48.3680  -60.0158 H         1 UNK         0.0546 
    103 H103       30.4748  -46.3338  -58.5811 H         1 UNK         0.0828 
    104 H104       29.2080  -47.0201  -57.5635 H         1 UNK         0.0828 
    105 H105       28.8741  -46.6045  -59.2392 H         1 UNK         0.0828 
    106 H106       30.7602  -48.9164  -57.0876 H         1 UNK         0.3005 
    107 H107       33.1553  -51.3977  -57.6404 H         1 UNK         0.1257 
    108 H108       34.6599  -49.3235  -57.6304 H         1 UNK         0.0775 
    109 H109       34.7125  -50.3183  -56.2115 H         1 UNK         0.0775 
    110 H110       34.7934  -46.6963  -57.1937 H         1 UNK         0.0840 
    111 H111       33.1832  -47.0766  -57.7543 H         1 UNK         0.0840 
    112 H112       31.9510  -50.0979  -55.3479 H         1 UNK         0.2987 
    113 H113       28.9822  -51.0860  -55.3769 H         1 UNK         0.0785 
    114 H114       29.0615  -53.5669  -55.3711 H         1 UNK         0.0798 
    115 H115       28.7051  -52.9654  -53.7647 H         1 UNK         0.0798 
    116 H116       30.3254  -53.5505  -54.1488 H         1 UNK         0.0798 
    117 H117       30.4938  -51.3643  -52.9714 H         1 UNK         0.3079 
    118 H118       30.2350  -49.2708  -51.5979 H         1 UNK         0.0794 
    119 H119       33.0709  -49.0363  -52.8008 H         1 UNK         0.0786 
    120 H120       32.4400  -50.4679  -51.9964 H         1 UNK         0.0786 
    121 H121       32.6922  -48.9947  -51.0835 H         1 UNK         0.0786 
    122 H122       30.7155  -47.1588  -53.4141 H         1 UNK         0.3032 
    123 H123       30.8833  -45.0783  -52.9560 H         1 UNK         0.1094 
    124 H124       29.3086  -44.5329  -50.3850 H         1 UNK         0.0794 
    125 H125       29.2953  -43.5383  -51.8432 H         1 UNK         0.0794 
    126 H126       28.6203  -45.1587  -51.8767 H         1 UNK         0.0794 
    127 H127       31.5892  -43.5221  -50.7358 H         1 UNK         0.3016 
@<TRIPOS>BOND
     1    1    2 1    
     2    1   67 1    
     3    1   68 1    
     4    1   69 1    
     5    2    3 2    
     6    2    4 am   BACKBONE|DICT|INTERRES
     7    4    5 1    
     8    4   70 1    
     9    5    6 1    
    10    5   65 1    
    11    5   71 1    
    12    6    7 1    
    13    6   72 1    
    14    6   73 1    
    15    7    8 1    
    16    8    9 1    
    17    8   74 1    
    18    8   75 1    
    19    9   10 ar   
    20    9   14 ar   
    21   10   11 ar   
    22   10   76 1    
    23   11   12 ar   
    24   11   48 1    
    25   12   13 ar   
    26   12   77 1    
    27   13   14 ar   
    28   13   15 1    
    29   14   78 1    
    30   15   16 1    
    31   15   79 1    
    32   15   80 1    
    33   16   17 1    
    34   17   18 1    
    35   17   81 1    
    36   17   82 1    
    37   18   19 1    
    38   18   22 1    
    39   18   83 1    
    40   19   20 am   BACKBONE|DICT|INTERRES
    41   19   21 2    
    42   20   84 1    
    43   20   85 1    
    44   22   23 am   BACKBONE|DICT|INTERRES
    45   22   86 1    
    46   23   24 2    
    47   23   25 1    
    48   25   26 1    
    49   25   27 1    
    50   25   87 1    
    51   26   88 1    
    52   26   89 1    
    53   26   90 1    
    54   27   28 am   BACKBONE|DICT|INTERRES
    55   27   91 1    
    56   28   29 2    
    57   28   30 1    
    58   30   31 1    
    59   30   32 1    
    60   30   92 1    
    61   31   93 1    
    62   31   94 1    
    63   31   95 1    
    64   32   33 am   BACKBONE|DICT|INTERRES
    65   32   96 1    
    66   33   34 2    
    67   33   35 1    
    68   35   36 1    
    69   35   37 1    
    70   35   97 1    
    71   36   98 1    
    72   36   99 1    
    73   36  100 1    
    74   37   38 am   BACKBONE|DICT|INTERRES
    75   37  101 1    
    76   38   39 2    
    77   38   40 1    
    78   40   41 1    
    79   40   42 1    
    80   40  102 1    
    81   41  103 1    
    82   41  104 1    
    83   41  105 1    
    84   42   43 am   BACKBONE|DICT|INTERRES
    85   42  106 1    
    86   43   44 2    
    87   43   45 1    
    88   45   46 1    
    89   45   49 1    
    90   45  107 1    
    91   46   47 1    
    92   46  108 1    
    93   46  109 1    
    94   47   48 1    
    95   48  110 1    
    96   48  111 1    
    97   49   50 am   BACKBONE|DICT|INTERRES
    98   49  112 1    
    99   50   51 2    
   100   50   52 1    
   101   52   53 1    
   102   52   54 1    
   103   52  113 1    
   104   53  114 1    
   105   53  115 1    
   106   53  116 1    
   107   54   55 am   BACKBONE|DICT|INTERRES
   108   54  117 1    
   109   55   56 2    
   110   55   57 1    
   111   57   58 1    
   112   57   59 1    
   113   57  118 1    
   114   58  119 1    
   115   58  120 1    
   116   58  121 1    
   117   59   60 am   BACKBONE|DICT|INTERRES
   118   59  122 1    
   119   60   61 2    
   120   60   62 1    
   121   62   63 1    
   122   62   64 1    
   123   62  123 1    
   124   63  124 1    
   125   63  125 1    
   126   63  126 1    
   127   64   65 am   BACKBONE|DICT|INTERRES
   128   64  127 1    
   129   65   66 2    
@<TRIPOS>SUBSTRUCTURE
     1 UNK         1 GROUP             0       ****    0 ROOT    
