@<TRIPOS>MOLECULE
3R134
127   129    1
SMALL
USER_CHARGES


@<TRIPOS>ATOM
      1 CA         37.5713  -41.3464  -53.6453 C.3       0 UNK        -0.1968 
      2 C          37.2299  -42.6960  -54.2606 C.2       0 UNK         0.4852 
      3 O          37.7065  -43.0062  -55.3536 O.2       0 UNK        -0.5359 
      4 N          36.4124  -43.4963  -53.5680 N.am      1 UNK        -0.4300 
      5 CA         35.9942  -44.8315  -53.9846 C.3       1 UNK         0.0863 
      6 C6         34.8460  -44.7926  -55.0314 C.3       11 UNK        -0.0953 
      7 S7         34.3709  -46.4613  -55.5902 S.3       11 UNK        -0.2369 
      8 C8         32.7896  -46.1882  -56.4571 C.3       11 UNK         0.0226 
      9 C9         31.7508  -45.4188  -55.6462 C.ar      11 UNK        -0.0699 
     10 C10        31.3856  -45.8272  -54.3586 C.ar      11 UNK        -0.0804 
     11 C11        30.4283  -45.1127  -53.6252 C.ar      11 UNK        -0.0871 
     12 C12        29.8366  -43.9824  -54.1975 C.ar      11 UNK        -0.1008 
     13 C13        30.1751  -43.5779  -55.4909 C.ar      11 UNK        -0.0735 
     14 C14        31.1356  -44.2963  -56.2063 C.ar      11 UNK        -0.0945 
     15 C15        29.5163  -42.3602  -56.1201 C.3       11 UNK         0.0169 
     16 S16        28.0344  -42.8208  -57.0729 S.3       11 UNK        -0.2669 
     17 C17        26.7382  -42.8549  -55.7842 C.3       11 UNK        -0.0850 
     18 CA         26.3743  -44.2851  -55.2862 C.3       10 UNK         0.0855 
     19 C          25.3633  -44.2724  -54.1013 C.2       10 UNK         0.5543 
     20 N          24.4964  -45.2687  -53.9647 N.am      10 UNK        -0.7343 
     21 O          25.3830  -43.3655  -53.2728 O.2       10 UNK        -0.5027 
     22 N          26.0284  -45.2331  -56.3571 N.am      10 UNK        -0.4495 
     23 C          25.0651  -45.1139  -57.2798 C.2       10 UNK         0.4903 
     24 O          24.3312  -44.1310  -57.3923 O.2       10 UNK        -0.4860 
     25 CA         24.8732  -46.3281  -58.2122 C.3       9 UNK         0.0227 
     26 CB         24.1666  -45.9747  -59.5384 C.3       9 UNK        -0.1964 
     27 N          26.1196  -47.0722  -58.4376 N.am      9 UNK        -0.4231 
     28 C          27.2140  -46.6718  -59.1040 C.2       9 UNK         0.5014 
     29 O          27.2907  -45.6216  -59.7424 O.2       9 UNK        -0.5270 
     30 CA         28.4514  -47.5903  -59.0356 C.3       8 UNK         0.0284 
     31 CB         29.5033  -46.9926  -58.0875 C.3       8 UNK        -0.1977 
     32 N          28.1534  -48.9609  -58.6073 N.am      8 UNK        -0.4342 
     33 C          27.4927  -49.8674  -59.3417 C.2       8 UNK         0.5039 
     34 O          27.1105  -49.6708  -60.4956 O.2       8 UNK        -0.5547 
     35 CA         27.1751  -51.2064  -58.6586 C.3       7 UNK         0.0281 
     36 CB         28.3547  -52.1831  -58.7925 C.3       7 UNK        -0.1963 
     37 N          26.8371  -51.0222  -57.2445 N.am      7 UNK        -0.4444 
     38 C          25.6466  -50.5879  -56.8058 C.2       7 UNK         0.5104 
     39 O          24.6921  -50.3464  -57.5442 O.2       7 UNK        -0.5100 
     40 CA         25.4973  -50.3586  -55.2906 C.3       6 UNK         0.0396 
     41 CB         25.0313  -51.6472  -54.5953 C.3       6 UNK        -0.1801 
     42 N          26.7244  -49.8757  -54.6519 N.am      6 UNK        -0.4747 
     43 C          27.2798  -48.6765  -54.8802 C.2       6 UNK         0.5012 
     44 O          26.8000  -47.8374  -55.6403 O.2       6 UNK        -0.5003 
     45 CA         28.6205  -48.3815  -54.1822 C.3       5 UNK         0.0782 
     46 C46        28.3771  -47.7078  -52.8106 C.3       11 UNK        -0.0868 
     47 S47        29.9269  -47.3083  -51.9317 S.3       11 UNK        -0.2515 
     48 C48        30.0479  -45.5085  -52.2003 C.3       11 UNK         0.0199 
     49 N          29.4868  -49.5619  -54.0787 N.am      5 UNK        -0.4607 
     50 C          29.9405  -50.2896  -55.1086 C.2       4 UNK         0.5031 
     51 O          29.5675  -50.1235  -56.2723 O.2       4 UNK        -0.5119 
     52 CA         30.9755  -51.3844  -54.7696 C.3       4 UNK         0.0263 
     53 CB         31.7558  -51.8611  -56.0131 C.3       4 UNK        -0.1967 
     54 N          31.9043  -51.0014  -53.6916 N.am      4 UNK        -0.4237 
     55 C          32.7096  -49.9281  -53.6809 C.2       3 UNK         0.4908 
     56 O          32.7827  -49.1128  -54.5993 O.2       3 UNK        -0.5102 
     57 CA         33.5865  -49.7301  -52.4411 C.3       3 UNK         0.0241 
     58 CB         34.9606  -50.3977  -52.6232 C.3       3 UNK        -0.1971 
     59 N          33.7577  -48.2955  -52.2233 N.am      3 UNK        -0.4139 
     60 C          33.8888  -47.7057  -51.0292 C.2       2 UNK         0.5016 
     61 O          33.9642  -48.3330  -49.9706 O.2       2 UNK        -0.5319 
     62 CA         33.9076  -46.1617  -51.0013 C.3       2 UNK         0.0286 
     63 CB         34.6008  -45.5932  -49.7435 C.3       2 UNK        -0.1963 
     64 N          34.4373  -45.5331  -52.2212 N.am      2 UNK        -0.4790 
     65 C          35.6873  -45.6252  -52.7019 C.2       1 UNK         0.5024 
     66 O          36.5879  -46.2717  -52.1656 O.2       1 UNK        -0.4888 
     67 H67        37.0794  -41.1991  -52.6840 H         1 UNK         0.0892 
     68 H68        38.6470  -41.2656  -53.4915 H         1 UNK         0.0892 
     69 H69        37.2607  -40.5416  -54.3111 H         1 UNK         0.0892 
     70 H70        36.0791  -43.2067  -52.6581 H         1 UNK         0.3107 
     71 H71        36.8504  -45.3265  -54.4495 H         1 UNK         0.0773 
     72 H72        35.1619  -44.2288  -55.9102 H         1 UNK         0.0680 
     73 H73        33.9781  -44.2650  -54.6345 H         1 UNK         0.0680 
     74 H74        32.3742  -47.1618  -56.7189 H         1 UNK         0.0650 
     75 H75        33.0002  -45.6792  -57.3987 H         1 UNK         0.0650 
     76 H76        31.8532  -46.7022  -53.9312 H         1 UNK         0.1397 
     77 H77        29.1046  -43.4154  -53.6385 H         1 UNK         0.1363 
     78 H78        31.3988  -43.9807  -57.2065 H         1 UNK         0.1355 
     79 H79        29.2683  -41.6177  -55.3604 H         1 UNK         0.0707 
     80 H80        30.2218  -41.8718  -56.7940 H         1 UNK         0.0707 
     81 H81        27.0599  -42.2331  -54.9475 H         1 UNK         0.1034 
     82 H82        25.8526  -42.3600  -56.1849 H         1 UNK         0.1034 
     83 H83        27.2782  -44.7064  -54.8492 H         1 UNK         0.0482 
     84 H84        23.8506  -45.2609  -53.1912 H         1 UNK         0.3460 
     85 H85        24.4875  -46.0282  -54.6262 H         1 UNK         0.3460 
     86 H86        26.5043  -46.1292  -56.2971 H         1 UNK         0.2989 
     87 H87        24.2200  -47.0150  -57.6722 H         1 UNK         0.0559 
     88 H88        24.7104  -45.2142  -60.0992 H         1 UNK         0.0848 
     89 H89        23.1655  -45.5834  -59.3538 H         1 UNK         0.0848 
     90 H90        24.0584  -46.8514  -60.1769 H         1 UNK         0.0848 
     91 H91        26.2021  -47.9340  -57.9145 H         1 UNK         0.3144 
     92 H92        28.8811  -47.6368  -60.0383 H         1 UNK         0.0727 
     93 H93        29.1151  -46.8732  -57.0760 H         1 UNK         0.0790 
     94 H94        29.8192  -46.0056  -58.4283 H         1 UNK         0.0790 
     95 H95        30.3928  -47.6199  -58.0356 H         1 UNK         0.0790 
     96 H96        28.5020  -49.2451  -57.6956 H         1 UNK         0.3215 
     97 H97        26.3147  -51.6464  -59.1683 H         1 UNK         0.0863 
     98 H98        28.1333  -53.1416  -58.3231 H         1 UNK         0.0808 
     99 H99        29.2642  -51.7882  -58.3399 H         1 UNK         0.0808 
    100 H100       28.5761  -52.3801  -59.8423 H         1 UNK         0.0808 
    101 H101       27.5915  -51.1285  -56.5790 H         1 UNK         0.3118 
    102 H102       24.7259  -49.5987  -55.1476 H         1 UNK         0.0546 
    103 H103       25.7704  -52.4448  -54.6807 H         1 UNK         0.0828 
    104 H104       24.1039  -52.0147  -55.0371 H         1 UNK         0.0828 
    105 H105       24.8378  -51.4793  -53.5358 H         1 UNK         0.0828 
    106 H106       27.1917  -50.5061  -54.0159 H         1 UNK         0.3005 
    107 H107       29.1481  -47.6655  -54.8155 H         1 UNK         0.1257 
    108 H108       27.7906  -48.3623  -52.1628 H         1 UNK         0.0775 
    109 H109       27.7863  -46.7973  -52.9318 H         1 UNK         0.0775 
    110 H110       29.0995  -45.0510  -51.9137 H         1 UNK         0.0840 
    111 H111       30.7912  -45.0970  -51.5189 H         1 UNK         0.0840 
    112 H112       29.8539  -49.7534  -53.1582 H         1 UNK         0.2987 
    113 H113       30.4025  -52.2339  -54.3954 H         1 UNK         0.0785 
    114 H114       31.0838  -52.2868  -56.7586 H         1 UNK         0.0798 
    115 H115       32.4811  -52.6328  -55.7559 H         1 UNK         0.0798 
    116 H116       32.2933  -51.0410  -56.4908 H         1 UNK         0.0798 
    117 H117       31.9159  -51.6157  -52.8884 H         1 UNK         0.3079 
    118 H118       33.0763  -50.1722  -51.5824 H         1 UNK         0.0794 
    119 H119       34.8567  -51.4693  -52.7981 H         1 UNK         0.0786 
    120 H120       35.5825  -50.2717  -51.7367 H         1 UNK         0.0786 
    121 H121       35.5005  -49.9769  -53.4727 H         1 UNK         0.0786 
    122 H122       33.6865  -47.7321  -53.0617 H         1 UNK         0.3032 
    123 H123       32.8600  -45.8696  -50.9425 H         1 UNK         0.1094 
    124 H124       34.5771  -44.5036  -49.7344 H         1 UNK         0.0794 
    125 H125       34.1021  -45.9319  -48.8344 H         1 UNK         0.0794 
    126 H126       35.6425  -45.9081  -49.6761 H         1 UNK         0.0794 
    127 H127       33.7735  -44.9841  -52.7504 H         1 UNK         0.3016 
@<TRIPOS>BOND
     1    1    2 1    
     2    1   67 1    
     3    1   68 1    
     4    1   69 1    
     5    2    3 2    
     6    2    4 am   BACKBONE|DICT|INTERRES
     7    4    5 1    
     8    4   70 1    
     9    5    6 1    
    10    5   65 1    
    11    5   71 1    
    12    6    7 1    
    13    6   72 1    
    14    6   73 1    
    15    7    8 1    
    16    8    9 1    
    17    8   74 1    
    18    8   75 1    
    19    9   10 ar   
    20    9   14 ar   
    21   10   11 ar   
    22   10   76 1    
    23   11   12 ar   
    24   11   48 1    
    25   12   13 ar   
    26   12   77 1    
    27   13   14 ar   
    28   13   15 1    
    29   14   78 1    
    30   15   16 1    
    31   15   79 1    
    32   15   80 1    
    33   16   17 1    
    34   17   18 1    
    35   17   81 1    
    36   17   82 1    
    37   18   19 1    
    38   18   22 1    
    39   18   83 1    
    40   19   20 am   BACKBONE|DICT|INTERRES
    41   19   21 2    
    42   20   84 1    
    43   20   85 1    
    44   22   23 am   BACKBONE|DICT|INTERRES
    45   22   86 1    
    46   23   24 2    
    47   23   25 1    
    48   25   26 1    
    49   25   27 1    
    50   25   87 1    
    51   26   88 1    
    52   26   89 1    
    53   26   90 1    
    54   27   28 am   BACKBONE|DICT|INTERRES
    55   27   91 1    
    56   28   29 2    
    57   28   30 1    
    58   30   31 1    
    59   30   32 1    
    60   30   92 1    
    61   31   93 1    
    62   31   94 1    
    63   31   95 1    
    64   32   33 am   BACKBONE|DICT|INTERRES
    65   32   96 1    
    66   33   34 2    
    67   33   35 1    
    68   35   36 1    
    69   35   37 1    
    70   35   97 1    
    71   36   98 1    
    72   36   99 1    
    73   36  100 1    
    74   37   38 am   BACKBONE|DICT|INTERRES
    75   37  101 1    
    76   38   39 2    
    77   38   40 1    
    78   40   41 1    
    79   40   42 1    
    80   40  102 1    
    81   41  103 1    
    82   41  104 1    
    83   41  105 1    
    84   42   43 am   BACKBONE|DICT|INTERRES
    85   42  106 1    
    86   43   44 2    
    87   43   45 1    
    88   45   46 1    
    89   45   49 1    
    90   45  107 1    
    91   46   47 1    
    92   46  108 1    
    93   46  109 1    
    94   47   48 1    
    95   48  110 1    
    96   48  111 1    
    97   49   50 am   BACKBONE|DICT|INTERRES
    98   49  112 1    
    99   50   51 2    
   100   50   52 1    
   101   52   53 1    
   102   52   54 1    
   103   52  113 1    
   104   53  114 1    
   105   53  115 1    
   106   53  116 1    
   107   54   55 am   BACKBONE|DICT|INTERRES
   108   54  117 1    
   109   55   56 2    
   110   55   57 1    
   111   57   58 1    
   112   57   59 1    
   113   57  118 1    
   114   58  119 1    
   115   58  120 1    
   116   58  121 1    
   117   59   60 am   BACKBONE|DICT|INTERRES
   118   59  122 1    
   119   60   61 2    
   120   60   62 1    
   121   62   63 1    
   122   62   64 1    
   123   62  123 1    
   124   63  124 1    
   125   63  125 1    
   126   63  126 1    
   127   64   65 am   BACKBONE|DICT|INTERRES
   128   64  127 1    
   129   65   66 2    
@<TRIPOS>SUBSTRUCTURE
     1 UNK         1 GROUP             0       ****    0 ROOT    
