@<TRIPOS>MOLECULE
3R134
127   129    1
SMALL
USER_CHARGES


@<TRIPOS>ATOM
      1 CA         32.2068  -46.0978  -51.3076 C.3       0 UNK        -0.1968 
      2 C          33.3439  -45.7319  -52.2496 C.2       0 UNK         0.4852 
      3 O          34.1024  -44.8045  -51.9628 O.2       0 UNK        -0.5359 
      4 N          33.4507  -46.4510  -53.3714 N.am      1 UNK        -0.4300 
      5 CA         34.5065  -46.3292  -54.3773 C.3       1 UNK         0.0863 
      6 C6         33.9404  -46.3124  -55.8334 C.3       11 UNK        -0.0953 
      7 S7         32.4291  -45.3265  -56.1183 S.3       11 UNK        -0.2369 
      8 C8         32.8168  -43.6854  -55.4377 C.3       11 UNK         0.0226 
      9 C9         31.5285  -42.9422  -55.1210 C.ar      11 UNK        -0.0699 
     10 C10        30.8221  -43.2466  -53.9541 C.ar      11 UNK        -0.0804 
     11 C11        29.6075  -42.6154  -53.6648 C.ar      11 UNK        -0.0871 
     12 C12        29.1260  -41.6358  -54.5395 C.ar      11 UNK        -0.1008 
     13 C13        29.8182  -41.3271  -55.7155 C.ar      11 UNK        -0.0735 
     14 C14        31.0216  -41.9809  -55.9994 C.ar      11 UNK        -0.0945 
     15 C15        29.2653  -40.2970  -56.6896 C.3       11 UNK         0.0169 
     16 S16        28.4373  -41.0880  -58.1074 S.3       11 UNK        -0.2669 
     17 C17        26.8172  -41.5611  -57.4028 C.3       11 UNK        -0.0850 
     18 CA         26.7685  -43.0036  -56.8217 C.3       10 UNK         0.0855 
     19 C          25.3841  -43.3483  -56.2007 C.2       10 UNK         0.5543 
     20 N          24.9685  -44.6078  -56.1758 N.am      10 UNK        -0.7343 
     21 O          24.6734  -42.4662  -55.7251 O.2       10 UNK        -0.5027 
     22 N          27.2276  -44.0095  -57.7936 N.am      10 UNK        -0.4495 
     23 C          28.2625  -44.8346  -57.6080 C.2       10 UNK         0.4903 
     24 O          28.9623  -44.8637  -56.5949 O.2       10 UNK        -0.4860 
     25 CA         28.5745  -45.7937  -58.7593 C.3       9 UNK         0.0227 
     26 CB         29.4371  -45.1046  -59.8317 C.3       9 UNK        -0.1964 
     27 N          29.2881  -46.9423  -58.2129 N.am      9 UNK        -0.4231 
     28 C          29.2563  -48.1870  -58.6979 C.2       9 UNK         0.5014 
     29 O          28.6479  -48.5023  -59.7221 O.2       9 UNK        -0.5270 
     30 CA         30.0402  -49.2616  -57.9230 C.3       8 UNK         0.0284 
     31 CB         31.2005  -48.6950  -57.0796 C.3       8 UNK        -0.1977 
     32 N          29.1404  -50.0113  -57.0507 N.am      8 UNK        -0.4342 
     33 C          28.3691  -51.0416  -57.4208 C.2       8 UNK         0.5039 
     34 O          28.3635  -51.5328  -58.5503 O.2       8 UNK        -0.5547 
     35 CA         27.4555  -51.6392  -56.3406 C.3       7 UNK         0.0281 
     36 CB         28.2567  -52.5672  -55.4101 C.3       7 UNK        -0.1963 
     37 N          26.8106  -50.5935  -55.5439 N.am      7 UNK        -0.4444 
     38 C          25.5756  -50.1189  -55.7547 C.2       7 UNK         0.5104 
     39 O          24.8335  -50.5208  -56.6517 O.2       7 UNK        -0.5100 
     40 CA         25.0557  -49.0319  -54.7918 C.3       6 UNK         0.0396 
     41 CB         24.1404  -49.6590  -53.7279 C.3       6 UNK        -0.1801 
     42 N          26.1193  -48.2805  -54.1199 N.am      6 UNK        -0.4747 
     43 C          26.8695  -47.3368  -54.7071 C.2       6 UNK         0.5012 
     44 O          26.6948  -46.9667  -55.8671 O.2       6 UNK        -0.5003 
     45 CA         28.0202  -46.7338  -53.8656 C.3       5 UNK         0.0782 
     46 C46        27.5598  -45.4174  -53.1802 C.3       11 UNK        -0.0868 
     47 S47        28.7839  -44.7408  -52.0011 S.3       11 UNK        -0.2515 
     48 C48        28.8213  -42.9578  -52.4016 C.3       11 UNK         0.0199 
     49 N          28.6078  -47.6892  -52.9097 N.am      5 UNK        -0.4607 
     50 C          29.1567  -48.8672  -53.2308 C.2       4 UNK         0.5031 
     51 O          29.0945  -49.3626  -54.3564 O.2       4 UNK        -0.5119 
     52 CA         29.8545  -49.6447  -52.1008 C.3       4 UNK         0.0263 
     53 CB         28.8316  -50.5247  -51.3643 C.3       4 UNK        -0.1967 
     54 N          30.9525  -50.4941  -52.5832 N.am      4 UNK        -0.4237 
     55 C          32.0025  -50.0645  -53.2966 C.2       3 UNK         0.4908 
     56 O          32.1822  -48.8822  -53.6046 O.2       3 UNK        -0.5102 
     57 CA         33.0206  -51.1242  -53.7467 C.3       3 UNK         0.0241 
     58 CB         32.3966  -52.1289  -54.7335 C.3       3 UNK        -0.1971 
     59 N          34.1213  -50.4210  -54.3967 N.am      3 UNK        -0.4139 
     60 C          35.4286  -50.6903  -54.3098 C.2       2 UNK         0.5016 
     61 O          35.8898  -51.6896  -53.7573 O.2       2 UNK        -0.5319 
     62 CA         36.3874  -49.6549  -54.9390 C.3       2 UNK         0.0286 
     63 CB         36.8956  -50.1518  -56.3022 C.3       2 UNK        -0.1963 
     64 N          35.7582  -48.3377  -55.1125 N.am      2 UNK        -0.4790 
     65 C          35.4982  -47.4863  -54.1077 C.2       1 UNK         0.5024 
     66 O          35.9708  -47.6302  -52.9779 O.2       1 UNK        -0.4888 
     67 H67        32.5890  -46.6626  -50.4580 H         1 UNK         0.0892 
     68 H68        31.7224  -45.1972  -50.9309 H         1 UNK         0.0892 
     69 H69        31.4502  -46.7004  -51.8097 H         1 UNK         0.0892 
     70 H70        32.8351  -47.2546  -53.5012 H         1 UNK         0.3107 
     71 H71        35.0645  -45.4040  -54.2231 H         1 UNK         0.0773 
     72 H72        33.6607  -47.3168  -56.1524 H         1 UNK         0.0680 
     73 H73        34.7073  -45.9702  -56.5304 H         1 UNK         0.0680 
     74 H74        33.4234  -43.1308  -56.1548 H         1 UNK         0.0650 
     75 H75        33.4100  -43.7704  -54.5285 H         1 UNK         0.0650 
     76 H76        31.2103  -43.9988  -53.2837 H         1 UNK         0.1397 
     77 H77        28.1950  -41.1309  -54.3211 H         1 UNK         0.1363 
     78 H78        31.5519  -41.7547  -56.9141 H         1 UNK         0.1355 
     79 H79        28.5787  -39.6128  -56.1889 H         1 UNK         0.0707 
     80 H80        30.0848  -39.6815  -57.0638 H         1 UNK         0.0707 
     81 H81        26.5436  -40.8320  -56.6381 H         1 UNK         0.1034 
     82 H82        26.0703  -41.4549  -58.1913 H         1 UNK         0.1034 
     83 H83        27.4349  -43.0209  -55.9630 H         1 UNK         0.0482 
     84 H84        25.5852  -45.3612  -56.4576 H         1 UNK         0.3460 
     85 H85        24.0679  -44.8189  -55.7775 H         1 UNK         0.3460 
     86 H86        26.6896  -44.0747  -58.6453 H         1 UNK         0.2989 
     87 H87        27.6309  -46.1249  -59.1983 H         1 UNK         0.0559 
     88 H88        30.3873  -44.7614  -59.4196 H         1 UNK         0.0848 
     89 H89        28.9278  -44.2330  -60.2448 H         1 UNK         0.0848 
     90 H90        29.6541  -45.7776  -60.6612 H         1 UNK         0.0848 
     91 H91        29.7646  -46.7480  -57.3402 H         1 UNK         0.3144 
     92 H92        30.4710  -49.9409  -58.6616 H         1 UNK         0.0727 
     93 H93        31.8172  -49.4966  -56.6753 H         1 UNK         0.0790 
     94 H94        30.8507  -48.0993  -56.2350 H         1 UNK         0.0790 
     95 H95        31.8536  -48.0662  -57.6861 H         1 UNK         0.0790 
     96 H96        29.0931  -49.7021  -56.0799 H         1 UNK         0.3215 
     97 H97        26.6961  -52.2437  -56.8418 H         1 UNK         0.0863 
     98 H98        27.6098  -53.0404  -54.6714 H         1 UNK         0.0808 
     99 H99        29.0404  -52.0313  -54.8734 H         1 UNK         0.0808 
    100 H100       28.7386  -53.3647  -55.9772 H         1 UNK         0.0808 
    101 H101       27.3886  -50.1476  -54.8395 H         1 UNK         0.3118 
    102 H102       24.4585  -48.3318  -55.3802 H         1 UNK         0.0546 
    103 H103       24.6791  -50.3670  -53.0968 H         1 UNK         0.0828 
    104 H104       23.3155  -50.2005  -54.1931 H         1 UNK         0.0828 
    105 H105       23.7015  -48.8980  -53.0825 H         1 UNK         0.0828 
    106 H106       26.3238  -48.5277  -53.1623 H         1 UNK         0.3005 
    107 H107       28.8178  -46.4803  -54.5671 H         1 UNK         0.1257 
    108 H108       26.6298  -45.5730  -52.6300 H         1 UNK         0.0775 
    109 H109       27.3427  -44.6644  -53.9403 H         1 UNK         0.0775 
    110 H110       27.7951  -42.5933  -52.4716 H         1 UNK         0.0840 
    111 H111       29.2777  -42.4277  -51.5648 H         1 UNK         0.0840 
    112 H112       28.6842  -47.3517  -51.9608 H         1 UNK         0.2987 
    113 H113       30.2786  -48.9267  -51.3965 H         1 UNK         0.0785 
    114 H114       29.2893  -51.0489  -50.5251 H         1 UNK         0.0798 
    115 H115       28.3913  -51.2713  -52.0271 H         1 UNK         0.0798 
    116 H116       28.0145  -49.9256  -50.9598 H         1 UNK         0.0798 
    117 H117       30.8726  -51.4813  -52.3898 H         1 UNK         0.3079 
    118 H118       33.3865  -51.6475  -52.8608 H         1 UNK         0.0794 
    119 H119       31.6138  -52.7193  -54.2566 H         1 UNK         0.0786 
    120 H120       33.1432  -52.8297  -55.1074 H         1 UNK         0.0786 
    121 H121       31.9488  -51.6294  -55.5931 H         1 UNK         0.0786 
    122 H122       33.8451  -49.5342  -54.7953 H         1 UNK         0.3032 
    123 H123       37.2437  -49.5518  -54.2682 H         1 UNK         0.1094 
    124 H124       37.6181  -49.4585  -56.7334 H         1 UNK         0.0794 
    125 H125       37.3948  -51.1169  -56.2033 H         1 UNK         0.0794 
    126 H126       36.0814  -50.2785  -57.0170 H         1 UNK         0.0794 
    127 H127       35.3796  -48.1373  -56.0274 H         1 UNK         0.3016 
@<TRIPOS>BOND
     1    1    2 1    
     2    1   67 1    
     3    1   68 1    
     4    1   69 1    
     5    2    3 2    
     6    2    4 am   BACKBONE|DICT|INTERRES
     7    4    5 1    
     8    4   70 1    
     9    5    6 1    
    10    5   65 1    
    11    5   71 1    
    12    6    7 1    
    13    6   72 1    
    14    6   73 1    
    15    7    8 1    
    16    8    9 1    
    17    8   74 1    
    18    8   75 1    
    19    9   10 ar   
    20    9   14 ar   
    21   10   11 ar   
    22   10   76 1    
    23   11   12 ar   
    24   11   48 1    
    25   12   13 ar   
    26   12   77 1    
    27   13   14 ar   
    28   13   15 1    
    29   14   78 1    
    30   15   16 1    
    31   15   79 1    
    32   15   80 1    
    33   16   17 1    
    34   17   18 1    
    35   17   81 1    
    36   17   82 1    
    37   18   19 1    
    38   18   22 1    
    39   18   83 1    
    40   19   20 am   BACKBONE|DICT|INTERRES
    41   19   21 2    
    42   20   84 1    
    43   20   85 1    
    44   22   23 am   BACKBONE|DICT|INTERRES
    45   22   86 1    
    46   23   24 2    
    47   23   25 1    
    48   25   26 1    
    49   25   27 1    
    50   25   87 1    
    51   26   88 1    
    52   26   89 1    
    53   26   90 1    
    54   27   28 am   BACKBONE|DICT|INTERRES
    55   27   91 1    
    56   28   29 2    
    57   28   30 1    
    58   30   31 1    
    59   30   32 1    
    60   30   92 1    
    61   31   93 1    
    62   31   94 1    
    63   31   95 1    
    64   32   33 am   BACKBONE|DICT|INTERRES
    65   32   96 1    
    66   33   34 2    
    67   33   35 1    
    68   35   36 1    
    69   35   37 1    
    70   35   97 1    
    71   36   98 1    
    72   36   99 1    
    73   36  100 1    
    74   37   38 am   BACKBONE|DICT|INTERRES
    75   37  101 1    
    76   38   39 2    
    77   38   40 1    
    78   40   41 1    
    79   40   42 1    
    80   40  102 1    
    81   41  103 1    
    82   41  104 1    
    83   41  105 1    
    84   42   43 am   BACKBONE|DICT|INTERRES
    85   42  106 1    
    86   43   44 2    
    87   43   45 1    
    88   45   46 1    
    89   45   49 1    
    90   45  107 1    
    91   46   47 1    
    92   46  108 1    
    93   46  109 1    
    94   47   48 1    
    95   48  110 1    
    96   48  111 1    
    97   49   50 am   BACKBONE|DICT|INTERRES
    98   49  112 1    
    99   50   51 2    
   100   50   52 1    
   101   52   53 1    
   102   52   54 1    
   103   52  113 1    
   104   53  114 1    
   105   53  115 1    
   106   53  116 1    
   107   54   55 am   BACKBONE|DICT|INTERRES
   108   54  117 1    
   109   55   56 2    
   110   55   57 1    
   111   57   58 1    
   112   57   59 1    
   113   57  118 1    
   114   58  119 1    
   115   58  120 1    
   116   58  121 1    
   117   59   60 am   BACKBONE|DICT|INTERRES
   118   59  122 1    
   119   60   61 2    
   120   60   62 1    
   121   62   63 1    
   122   62   64 1    
   123   62  123 1    
   124   63  124 1    
   125   63  125 1    
   126   63  126 1    
   127   64   65 am   BACKBONE|DICT|INTERRES
   128   64  127 1    
   129   65   66 2    
@<TRIPOS>SUBSTRUCTURE
     1 UNK         1 GROUP             0       ****    0 ROOT    
