@<TRIPOS>MOLECULE
3R134
127   129    1
SMALL
USER_CHARGES


@<TRIPOS>ATOM
      1 CA         36.5244  -45.3764  -52.8739 C.3       0 UNK        -0.1968 
      2 C          35.4049  -46.4002  -52.7089 C.2       0 UNK         0.4852 
      3 O          35.3469  -47.0631  -51.6743 O.2       0 UNK        -0.5359 
      4 N          34.5069  -46.5745  -53.6863 N.am      1 UNK        -0.4300 
      5 CA         34.4597  -45.9123  -54.9939 C.3       1 UNK         0.0863 
      6 C6         33.2483  -44.9518  -55.1130 C.3       11 UNK        -0.0953 
      7 S7         33.4246  -43.5037  -54.0233 S.3       11 UNK        -0.2369 
      8 C8         32.0514  -42.4583  -54.5956 C.3       11 UNK         0.0226 
      9 C9         30.6940  -43.0098  -54.1829 C.ar      11 UNK        -0.0699 
     10 C10        30.3331  -43.0464  -52.8326 C.ar      11 UNK        -0.0804 
     11 C11        29.0763  -43.5198  -52.4450 C.ar      11 UNK        -0.0871 
     12 C12        28.1649  -43.9279  -53.4231 C.ar      11 UNK        -0.1008 
     13 C13        28.5204  -43.9138  -54.7740 C.ar      11 UNK        -0.0735 
     14 C14        29.7907  -43.4638  -55.1483 C.ar      11 UNK        -0.0945 
     15 C15        27.5418  -44.4248  -55.8190 C.3       11 UNK         0.0169 
     16 S16        26.3810  -43.1394  -56.3815 S.3       11 UNK        -0.2669 
     17 C17        27.4004  -42.1813  -57.5572 C.3       11 UNK        -0.0850 
     18 CA         27.0290  -42.4372  -59.0494 C.3       10 UNK         0.0855 
     19 C          27.7417  -41.4427  -60.0181 C.2       10 UNK         0.5543 
     20 N          28.0895  -41.8408  -61.2359 N.am      10 UNK        -0.7343 
     21 O          27.9545  -40.2815  -59.6771 O.2       10 UNK        -0.5027 
     22 N          27.1226  -43.8570  -59.4475 N.am      10 UNK        -0.4495 
     23 C          28.2314  -44.6075  -59.4420 C.2       10 UNK         0.4903 
     24 O          29.3436  -44.2042  -59.0951 O.2       10 UNK        -0.4860 
     25 CA         28.0765  -46.0558  -59.9277 C.3       9 UNK         0.0227 
     26 CB         28.6132  -46.2041  -61.3609 C.3       9 UNK        -0.1964 
     27 N          28.8080  -46.9603  -59.0403 N.am      9 UNK        -0.4231 
     28 C          28.3125  -47.4671  -57.9049 C.2       9 UNK         0.5014 
     29 O          27.1531  -47.2906  -57.5220 O.2       9 UNK        -0.5270 
     30 CA         29.2991  -48.2656  -57.0336 C.3       8 UNK         0.0284 
     31 CB         30.0530  -47.3204  -56.0823 C.3       8 UNK        -0.1977 
     32 N          28.6423  -49.3037  -56.2368 N.am      8 UNK        -0.4342 
     33 C          27.9817  -50.3633  -56.7223 C.2       8 UNK         0.5039 
     34 O          27.8935  -50.6229  -57.9237 O.2       8 UNK        -0.5547 
     35 CA         27.3181  -51.3091  -55.7079 C.3       7 UNK         0.0281 
     36 CB         28.2891  -52.4309  -55.3056 C.3       7 UNK        -0.1963 
     37 N          26.8775  -50.6159  -54.4942 N.am      7 UNK        -0.4444 
     38 C          25.6008  -50.4136  -54.1429 C.2       7 UNK         0.5104 
     39 O          24.6392  -50.7504  -54.8352 O.2       7 UNK        -0.5100 
     40 CA         25.3320  -49.7597  -52.7722 C.3       6 UNK         0.0396 
     41 CB         24.9176  -50.8285  -51.7477 C.3       6 UNK        -0.1801 
     42 N          26.4727  -49.0112  -52.2380 N.am      6 UNK        -0.4747 
     43 C          26.8467  -47.7946  -52.6587 C.2       6 UNK         0.5012 
     44 O          26.2340  -47.1529  -53.5112 O.2       6 UNK        -0.5003 
     45 CA         28.1212  -47.1871  -52.0300 C.3       5 UNK         0.0782 
     46 C46        27.7253  -46.2463  -50.8642 C.3       11 UNK        -0.0868 
     47 S47        29.1156  -45.2276  -50.2650 S.3       11 UNK        -0.2515 
     48 C48        28.7119  -43.5946  -50.9698 C.3       11 UNK         0.0199 
     49 N          29.1389  -48.1690  -51.6172 N.am      5 UNK        -0.4607 
     50 C          29.6673  -49.1264  -52.3903 C.2       4 UNK         0.5031 
     51 O          29.2609  -49.3875  -53.5237 O.2       4 UNK        -0.5119 
     52 CA         30.7944  -49.9737  -51.7746 C.3       4 UNK         0.0263 
     53 CB         30.2034  -51.0422  -50.8398 C.3       4 UNK        -0.1967 
     54 N          31.5976  -50.6403  -52.8051 N.am      4 UNK        -0.4237 
     55 C          32.3884  -50.0057  -53.6799 C.2       3 UNK         0.4908 
     56 O          32.6285  -48.7940  -53.6316 O.2       3 UNK        -0.5102 
     57 CA         33.0066  -50.8693  -54.7933 C.3       3 UNK         0.0241 
     58 CB         31.9341  -51.5697  -55.6477 C.3       3 UNK        -0.1971 
     59 N          33.8000  -49.9986  -55.6490 N.am      3 UNK        -0.4139 
     60 C          34.9877  -50.2602  -56.1973 C.2       2 UNK         0.5016 
     61 O          35.5244  -51.3685  -56.1759 O.2       2 UNK        -0.5319 
     62 CA         35.7330  -49.0699  -56.8350 C.3       2 UNK         0.0286 
     63 CB         35.4197  -48.9491  -58.3398 C.3       2 UNK        -0.1963 
     64 N          35.5326  -47.7957  -56.1177 N.am      2 UNK        -0.4790 
     65 C          34.4255  -47.0388  -56.0379 C.2       1 UNK         0.5024 
     66 O          33.3916  -47.2744  -56.6630 O.2       1 UNK        -0.4888 
     67 H67        36.1251  -44.3914  -53.1116 H         1 UNK         0.0892 
     68 H68        37.0971  -45.2841  -51.9513 H         1 UNK         0.0892 
     69 H69        37.2119  -45.6789  -53.6630 H         1 UNK         0.0892 
     70 H70        33.7959  -47.2938  -53.5623 H         1 UNK         0.3107 
     71 H71        35.3675  -45.3416  -55.1931 H         1 UNK         0.0773 
     72 H72        33.1441  -44.5921  -56.1385 H         1 UNK         0.0680 
     73 H73        32.3170  -45.4658  -54.8660 H         1 UNK         0.0680 
     74 H74        32.1150  -42.3371  -55.6781 H         1 UNK         0.0650 
     75 H75        32.1711  -41.4613  -54.1694 H         1 UNK         0.0650 
     76 H76        31.0390  -42.7150  -52.0831 H         1 UNK         0.1397 
     77 H77        27.1849  -44.2833  -53.1358 H         1 UNK         0.1363 
     78 H78        30.0755  -43.4631  -56.1915 H         1 UNK         0.1355 
     79 H79        26.9690  -45.2579  -55.4088 H         1 UNK         0.0707 
     80 H80        28.0875  -44.8295  -56.6678 H         1 UNK         0.0707 
     81 H81        27.2532  -41.1291  -57.3077 H         1 UNK         0.1034 
     82 H82        28.4592  -42.3719  -57.3895 H         1 UNK         0.1034 
     83 H83        25.9718  -42.1902  -59.1531 H         1 UNK         0.0482 
     84 H84        27.9102  -42.7856  -61.5343 H         1 UNK         0.3460 
     85 H85        28.5390  -41.1891  -61.8596 H         1 UNK         0.3460 
     86 H86        26.2568  -44.2745  -59.7578 H         1 UNK         0.2989 
     87 H87        27.0185  -46.3277  -59.9295 H         1 UNK         0.0559 
     88 H88        28.0640  -45.5633  -62.0518 H         1 UNK         0.0848 
     89 H89        28.5088  -47.2283  -61.7196 H         1 UNK         0.0848 
     90 H90        29.6669  -45.9300  -61.4306 H         1 UNK         0.0848 
     91 H91        29.7872  -47.0959  -59.2479 H         1 UNK         0.3144 
     92 H92        30.0231  -48.7578  -57.6861 H         1 UNK         0.0727 
     93 H93        29.3790  -46.8452  -55.3685 H         1 UNK         0.0790 
     94 H94        30.5608  -46.5262  -56.6315 H         1 UNK         0.0790 
     95 H95        30.8147  -47.8545  -55.5144 H         1 UNK         0.0790 
     96 H96        28.7264  -49.2101  -55.2272 H         1 UNK         0.3215 
     97 H97        26.4663  -51.7696  -56.2132 H         1 UNK         0.0863 
     98 H98        27.7834  -53.1953  -54.7157 H         1 UNK         0.0808 
     99 H99        29.1170  -52.0464  -54.7104 H         1 UNK         0.0808 
    100 H100       28.7111  -52.9238  -56.1828 H         1 UNK         0.0808 
    101 H101       27.6111  -50.2498  -53.8945 H         1 UNK         0.3118 
    102 H102       24.4938  -49.0709  -52.8978 H         1 UNK         0.0546 
    103 H103       25.7156  -51.5508  -51.5712 H         1 UNK         0.0828 
    104 H104       24.0463  -51.3856  -52.0952 H         1 UNK         0.0828 
    105 H105       24.6508  -50.3800  -50.7906 H         1 UNK         0.0828 
    106 H106       27.0306  -49.4663  -51.5298 H         1 UNK         0.3005 
    107 H107       28.5843  -46.5882  -52.8165 H         1 UNK         0.1257 
    108 H108       27.3479  -46.8294  -50.0219 H         1 UNK         0.0775 
    109 H109       26.9050  -45.5862  -51.1520 H         1 UNK         0.0775 
    110 H110       27.6548  -43.3684  -50.8223 H         1 UNK         0.0840 
    111 H111       29.2600  -42.8315  -50.4149 H         1 UNK         0.0840 
    112 H112       29.5211  -48.0282  -50.6930 H         1 UNK         0.2987 
    113 H113       31.4499  -49.3156  -51.2002 H         1 UNK         0.0785 
    114 H114       29.6320  -50.5866  -50.0301 H         1 UNK         0.0798 
    115 H115       30.9876  -51.6428  -50.3785 H         1 UNK         0.0798 
    116 H116       29.5323  -51.7181  -51.3720 H         1 UNK         0.0798 
    117 H117       31.4420  -51.6302  -52.9233 H         1 UNK         0.3079 
    118 H118       33.6532  -51.6146  -54.3254 H         1 UNK         0.0794 
    119 H119       31.4176  -52.3402  -55.0764 H         1 UNK         0.0786 
    120 H120       32.3767  -52.0623  -56.5137 H         1 UNK         0.0786 
    121 H121       31.1859  -50.8645  -56.0126 H         1 UNK         0.0786 
    122 H122       33.4552  -49.0457  -55.7139 H         1 UNK         0.3032 
    123 H123       36.7975  -49.2938  -56.7436 H         1 UNK         0.1094 
    124 H124       35.9620  -48.1196  -58.7933 H         1 UNK         0.0794 
    125 H125       35.7144  -49.8567  -58.8681 H         1 UNK         0.0794 
    126 H126       34.3565  -48.8008  -58.5297 H         1 UNK         0.0794 
    127 H127       36.3060  -47.5329  -55.5219 H         1 UNK         0.3016 
@<TRIPOS>BOND
     1    1    2 1    
     2    1   67 1    
     3    1   68 1    
     4    1   69 1    
     5    2    3 2    
     6    2    4 am   BACKBONE|DICT|INTERRES
     7    4    5 1    
     8    4   70 1    
     9    5    6 1    
    10    5   65 1    
    11    5   71 1    
    12    6    7 1    
    13    6   72 1    
    14    6   73 1    
    15    7    8 1    
    16    8    9 1    
    17    8   74 1    
    18    8   75 1    
    19    9   10 ar   
    20    9   14 ar   
    21   10   11 ar   
    22   10   76 1    
    23   11   12 ar   
    24   11   48 1    
    25   12   13 ar   
    26   12   77 1    
    27   13   14 ar   
    28   13   15 1    
    29   14   78 1    
    30   15   16 1    
    31   15   79 1    
    32   15   80 1    
    33   16   17 1    
    34   17   18 1    
    35   17   81 1    
    36   17   82 1    
    37   18   19 1    
    38   18   22 1    
    39   18   83 1    
    40   19   20 am   BACKBONE|DICT|INTERRES
    41   19   21 2    
    42   20   84 1    
    43   20   85 1    
    44   22   23 am   BACKBONE|DICT|INTERRES
    45   22   86 1    
    46   23   24 2    
    47   23   25 1    
    48   25   26 1    
    49   25   27 1    
    50   25   87 1    
    51   26   88 1    
    52   26   89 1    
    53   26   90 1    
    54   27   28 am   BACKBONE|DICT|INTERRES
    55   27   91 1    
    56   28   29 2    
    57   28   30 1    
    58   30   31 1    
    59   30   32 1    
    60   30   92 1    
    61   31   93 1    
    62   31   94 1    
    63   31   95 1    
    64   32   33 am   BACKBONE|DICT|INTERRES
    65   32   96 1    
    66   33   34 2    
    67   33   35 1    
    68   35   36 1    
    69   35   37 1    
    70   35   97 1    
    71   36   98 1    
    72   36   99 1    
    73   36  100 1    
    74   37   38 am   BACKBONE|DICT|INTERRES
    75   37  101 1    
    76   38   39 2    
    77   38   40 1    
    78   40   41 1    
    79   40   42 1    
    80   40  102 1    
    81   41  103 1    
    82   41  104 1    
    83   41  105 1    
    84   42   43 am   BACKBONE|DICT|INTERRES
    85   42  106 1    
    86   43   44 2    
    87   43   45 1    
    88   45   46 1    
    89   45   49 1    
    90   45  107 1    
    91   46   47 1    
    92   46  108 1    
    93   46  109 1    
    94   47   48 1    
    95   48  110 1    
    96   48  111 1    
    97   49   50 am   BACKBONE|DICT|INTERRES
    98   49  112 1    
    99   50   51 2    
   100   50   52 1    
   101   52   53 1    
   102   52   54 1    
   103   52  113 1    
   104   53  114 1    
   105   53  115 1    
   106   53  116 1    
   107   54   55 am   BACKBONE|DICT|INTERRES
   108   54  117 1    
   109   55   56 2    
   110   55   57 1    
   111   57   58 1    
   112   57   59 1    
   113   57  118 1    
   114   58  119 1    
   115   58  120 1    
   116   58  121 1    
   117   59   60 am   BACKBONE|DICT|INTERRES
   118   59  122 1    
   119   60   61 2    
   120   60   62 1    
   121   62   63 1    
   122   62   64 1    
   123   62  123 1    
   124   63  124 1    
   125   63  125 1    
   126   63  126 1    
   127   64   65 am   BACKBONE|DICT|INTERRES
   128   64  127 1    
   129   65   66 2    
@<TRIPOS>SUBSTRUCTURE
     1 UNK         1 GROUP             0       ****    0 ROOT    
