@<TRIPOS>MOLECULE
3R134
127   129    1
SMALL
USER_CHARGES


@<TRIPOS>ATOM
      1 CA         31.2840  -46.9994  -57.7596 C.3       0 UNK        -0.1968 
      2 C          32.6218  -46.9131  -57.0409 C.2       0 UNK         0.4852 
      3 O          33.6683  -47.0102  -57.6817 O.2       0 UNK        -0.5359 
      4 N          32.5969  -46.7581  -55.7107 N.am      1 UNK        -0.4300 
      5 CA         33.7355  -46.6012  -54.7938 C.3       1 UNK         0.0863 
      6 C6         34.6892  -45.4281  -55.1630 C.3       11 UNK        -0.0953 
      7 S7         35.0384  -44.3589  -53.7278 S.3       11 UNK        -0.2369 
      8 C8         34.2225  -42.8043  -54.2130 C.3       11 UNK         0.0226 
      9 C9         32.7028  -42.9132  -54.2118 C.ar      11 UNK        -0.0699 
     10 C10        31.9862  -42.7291  -53.0261 C.ar      11 UNK        -0.0804 
     11 C11        30.5889  -42.7703  -53.0286 C.ar      11 UNK        -0.0871 
     12 C12        29.9095  -43.0072  -54.2261 C.ar      11 UNK        -0.1008 
     13 C13        30.6119  -43.2115  -55.4199 C.ar      11 UNK        -0.0735 
     14 C14        32.0091  -43.1535  -55.4023 C.ar      11 UNK        -0.0945 
     15 C15        29.8923  -43.4505  -56.7465 C.3       11 UNK         0.0169 
     16 S16        28.4660  -44.5805  -56.6233 S.3       11 UNK        -0.2669 
     17 C17        27.0899  -43.4100  -56.3137 C.3       11 UNK        -0.0850 
     18 CA         26.1157  -43.2624  -57.5124 C.3       10 UNK         0.0855 
     19 C          26.7741  -42.5024  -58.7035 C.2       10 UNK         0.5543 
     20 N          26.9782  -43.1212  -59.8601 N.am      10 UNK        -0.7343 
     21 O          27.0992  -41.3251  -58.5717 O.2       10 UNK        -0.5027 
     22 N          25.4909  -44.5529  -57.8355 N.am      10 UNK        -0.4495 
     23 C          24.4365  -44.7577  -58.6324 C.2       10 UNK         0.4903 
     24 O          23.8074  -43.8471  -59.1735 O.2       10 UNK        -0.4860 
     25 CA         24.0293  -46.2300  -58.8734 C.3       9 UNK         0.0227 
     26 CB         23.0364  -46.3833  -60.0414 C.3       9 UNK        -0.1964 
     27 N          25.1832  -47.1090  -59.1107 N.am      9 UNK        -0.4231 
     28 C          26.0104  -47.5703  -58.1641 C.2       9 UNK         0.5014 
     29 O          25.8693  -47.3276  -56.9630 O.2       9 UNK        -0.5270 
     30 CA         27.2200  -48.3824  -58.6381 C.3       8 UNK         0.0284 
     31 CB         28.1893  -47.5191  -59.4689 C.3       8 UNK        -0.1977 
     32 N          27.9044  -48.9011  -57.4584 N.am      8 UNK        -0.4342 
     33 C          28.6296  -50.0213  -57.4022 C.2       8 UNK         0.5039 
     34 O          28.8728  -50.7224  -58.3857 O.2       8 UNK        -0.5547 
     35 CA         29.1885  -50.4453  -56.0302 C.3       7 UNK         0.0281 
     36 CB         30.7086  -50.2445  -55.9830 C.3       7 UNK        -0.1963 
     37 N          28.5866  -49.7691  -54.8742 N.am      7 UNK        -0.4444 
     38 C          27.3316  -49.9671  -54.4425 C.2       7 UNK         0.5104 
     39 O          26.5275  -50.7013  -55.0176 O.2       7 UNK        -0.5100 
     40 CA         26.8928  -49.2631  -53.1432 C.3       6 UNK         0.0396 
     41 CB         26.6603  -50.2976  -52.0292 C.3       6 UNK        -0.1801 
     42 N          27.8524  -48.2692  -52.6586 N.am      6 UNK        -0.4747 
     43 C          27.9735  -47.0151  -53.1175 C.2       6 UNK         0.5012 
     44 O          27.2467  -46.5408  -53.9873 O.2       6 UNK        -0.5003 
     45 CA         29.0869  -46.1398  -52.4983 C.3       5 UNK         0.0782 
     46 C46        28.4685  -45.0304  -51.6082 C.3       11 UNK        -0.0868 
     47 S47        29.7112  -44.0267  -50.7186 S.3       11 UNK        -0.2515 
     48 C48        29.8134  -42.5272  -51.7426 C.3       11 UNK         0.0199 
     49 N          30.0999  -46.9175  -51.7731 N.am      5 UNK        -0.4607 
     50 C          30.9710  -47.7653  -52.3284 C.2       4 UNK         0.5031 
     51 O          30.9777  -48.0309  -53.5337 O.2       4 UNK        -0.5119 
     52 CA         32.0175  -48.3832  -51.3800 C.3       4 UNK         0.0263 
     53 CB         31.4581  -48.7084  -49.9756 C.3       4 UNK        -0.1967 
     54 N          32.6837  -49.5496  -51.9662 N.am      4 UNK        -0.4237 
     55 C          32.1389  -50.7373  -52.2735 C.2       3 UNK         0.4908 
     56 O          30.9719  -51.0513  -52.0326 O.2       3 UNK        -0.5102 
     57 CA         33.0628  -51.7097  -53.0229 C.3       3 UNK         0.0241 
     58 CB         32.3512  -52.9797  -53.5301 C.3       3 UNK        -0.1971 
     59 N          33.6723  -50.9901  -54.1395 N.am      3 UNK        -0.4139 
     60 C          34.9574  -51.0480  -54.5005 C.2       2 UNK         0.5016 
     61 O          35.7729  -51.8393  -54.0256 O.2       2 UNK        -0.5319 
     62 CA         35.4212  -50.0207  -55.5512 C.3       2 UNK         0.0286 
     63 CB         35.3720  -50.6385  -56.9578 C.3       2 UNK        -0.1963 
     64 N          34.6691  -48.7563  -55.5606 N.am      2 UNK        -0.4790 
     65 C          34.5125  -47.9099  -54.5312 C.2       1 UNK         0.5024 
     66 O          34.9327  -48.1398  -53.3962 O.2       1 UNK        -0.4888 
     67 H67        31.2032  -47.9467  -58.2919 H         1 UNK         0.0892 
     68 H68        30.4440  -46.9246  -57.0691 H         1 UNK         0.0892 
     69 H69        31.1962  -46.1927  -58.4865 H         1 UNK         0.0892 
     70 H70        31.7036  -46.7895  -55.2338 H         1 UNK         0.3107 
     71 H71        33.2512  -46.3605  -53.8462 H         1 UNK         0.0773 
     72 H72        35.6383  -45.7844  -55.5688 H         1 UNK         0.0680 
     73 H73        34.2668  -44.8150  -55.9580 H         1 UNK         0.0680 
     74 H74        34.5850  -42.4946  -55.1944 H         1 UNK         0.0650 
     75 H75        34.5299  -42.0205  -53.5192 H         1 UNK         0.0650 
     76 H76        32.5164  -42.5397  -52.1026 H         1 UNK         0.1397 
     77 H77        28.8303  -43.0331  -54.2201 H         1 UNK         0.1363 
     78 H78        32.5597  -43.2822  -56.3237 H         1 UNK         0.1355 
     79 H79        30.5852  -43.8838  -57.4690 H         1 UNK         0.0707 
     80 H80        29.5799  -42.4937  -57.1663 H         1 UNK         0.0707 
     81 H81        26.5407  -43.7736  -55.4436 H         1 UNK         0.1034 
     82 H82        27.4782  -42.4329  -56.0213 H         1 UNK         0.1034 
     83 H83        25.3031  -42.6146  -57.1786 H         1 UNK         0.0482 
     84 H84        26.7111  -44.0848  -59.9729 H         1 UNK         0.3460 
     85 H85        27.4008  -42.6178  -60.6237 H         1 UNK         0.3460 
     86 H86        25.9223  -45.3674  -57.4105 H         1 UNK         0.2989 
     87 H87        23.5215  -46.5660  -57.9668 H         1 UNK         0.0559 
     88 H88        23.4640  -46.0376  -60.9834 H         1 UNK         0.0848 
     89 H89        22.1288  -45.8046  -59.8638 H         1 UNK         0.0848 
     90 H90        22.7315  -47.4219  -60.1710 H         1 UNK         0.0848 
     91 H91        25.3849  -47.3304  -60.0756 H         1 UNK         0.3144 
     92 H92        26.8529  -49.2150  -59.2421 H         1 UNK         0.0727 
     93 H93        27.7179  -47.1578  -60.3832 H         1 UNK         0.0790 
     94 H94        29.0692  -48.0882  -59.7690 H         1 UNK         0.0790 
     95 H95        28.5292  -46.6462  -58.9108 H         1 UNK         0.0790 
     96 H96        27.6699  -48.4125  -56.6012 H         1 UNK         0.3215 
     97 H97        28.9886  -51.5141  -55.9272 H         1 UNK         0.0863 
     98 H98        30.9752  -49.1921  -56.0419 H         1 UNK         0.0808 
     99 H99        31.2072  -50.7632  -56.8032 H         1 UNK         0.0808 
    100 H100       31.1126  -50.6336  -55.0533 H         1 UNK         0.0808 
    101 H101       29.1916  -49.1592  -54.3370 H         1 UNK         0.3118 
    102 H102       25.9434  -48.7639  -53.3485 H         1 UNK         0.0546 
    103 H103       27.5762  -50.8368  -51.7824 H         1 UNK         0.0828 
    104 H104       25.9181  -51.0382  -52.3304 H         1 UNK         0.0828 
    105 H105       26.2911  -49.8257  -51.1185 H         1 UNK         0.0828 
    106 H106       28.4994  -48.5749  -51.9456 H         1 UNK         0.3005 
    107 H107       29.5944  -45.6579  -53.3368 H         1 UNK         0.1257 
    108 H108       27.8150  -45.4729  -50.8536 H         1 UNK         0.0775 
    109 H109       27.8325  -44.3733  -52.2044 H         1 UNK         0.0775 
    110 H110       28.8104  -42.1537  -51.9553 H         1 UNK         0.0840 
    111 H111       30.3075  -41.7441  -51.1654 H         1 UNK         0.0840 
    112 H112       30.1707  -46.7227  -50.7849 H         1 UNK         0.2987 
    113 H113       32.7969  -47.6290  -51.2611 H         1 UNK         0.0785 
    114 H114       31.1863  -47.8028  -49.4325 H         1 UNK         0.0798 
    115 H115       32.1996  -49.2268  -49.3676 H         1 UNK         0.0798 
    116 H116       30.5709  -49.3408  -50.0250 H         1 UNK         0.0798 
    117 H117       33.6358  -49.3766  -52.2708 H         1 UNK         0.3079 
    118 H118       33.8345  -52.0117  -52.3114 H         1 UNK         0.0794 
    119 H119       31.9207  -53.5413  -52.7002 H         1 UNK         0.0786 
    120 H120       33.0479  -53.6435  -54.0422 H         1 UNK         0.0786 
    121 H121       31.5408  -52.7493  -54.2213 H         1 UNK         0.0786 
    122 H122       33.0972  -50.2834  -54.5763 H         1 UNK         0.3032 
    123 H123       36.4599  -49.7767  -55.3181 H         1 UNK         0.1094 
    124 H124       35.9431  -51.5673  -56.9980 H         1 UNK         0.0794 
    125 H125       34.3500  -50.8699  -57.2609 H         1 UNK         0.0794 
    126 H126       35.7987  -49.9658  -57.7022 H         1 UNK         0.0794 
    127 H127       34.3232  -48.4353  -56.4606 H         1 UNK         0.3016 
@<TRIPOS>BOND
     1    1    2 1    
     2    1   67 1    
     3    1   68 1    
     4    1   69 1    
     5    2    3 2    
     6    2    4 am   BACKBONE|DICT|INTERRES
     7    4    5 1    
     8    4   70 1    
     9    5    6 1    
    10    5   65 1    
    11    5   71 1    
    12    6    7 1    
    13    6   72 1    
    14    6   73 1    
    15    7    8 1    
    16    8    9 1    
    17    8   74 1    
    18    8   75 1    
    19    9   10 ar   
    20    9   14 ar   
    21   10   11 ar   
    22   10   76 1    
    23   11   12 ar   
    24   11   48 1    
    25   12   13 ar   
    26   12   77 1    
    27   13   14 ar   
    28   13   15 1    
    29   14   78 1    
    30   15   16 1    
    31   15   79 1    
    32   15   80 1    
    33   16   17 1    
    34   17   18 1    
    35   17   81 1    
    36   17   82 1    
    37   18   19 1    
    38   18   22 1    
    39   18   83 1    
    40   19   20 am   BACKBONE|DICT|INTERRES
    41   19   21 2    
    42   20   84 1    
    43   20   85 1    
    44   22   23 am   BACKBONE|DICT|INTERRES
    45   22   86 1    
    46   23   24 2    
    47   23   25 1    
    48   25   26 1    
    49   25   27 1    
    50   25   87 1    
    51   26   88 1    
    52   26   89 1    
    53   26   90 1    
    54   27   28 am   BACKBONE|DICT|INTERRES
    55   27   91 1    
    56   28   29 2    
    57   28   30 1    
    58   30   31 1    
    59   30   32 1    
    60   30   92 1    
    61   31   93 1    
    62   31   94 1    
    63   31   95 1    
    64   32   33 am   BACKBONE|DICT|INTERRES
    65   32   96 1    
    66   33   34 2    
    67   33   35 1    
    68   35   36 1    
    69   35   37 1    
    70   35   97 1    
    71   36   98 1    
    72   36   99 1    
    73   36  100 1    
    74   37   38 am   BACKBONE|DICT|INTERRES
    75   37  101 1    
    76   38   39 2    
    77   38   40 1    
    78   40   41 1    
    79   40   42 1    
    80   40  102 1    
    81   41  103 1    
    82   41  104 1    
    83   41  105 1    
    84   42   43 am   BACKBONE|DICT|INTERRES
    85   42  106 1    
    86   43   44 2    
    87   43   45 1    
    88   45   46 1    
    89   45   49 1    
    90   45  107 1    
    91   46   47 1    
    92   46  108 1    
    93   46  109 1    
    94   47   48 1    
    95   48  110 1    
    96   48  111 1    
    97   49   50 am   BACKBONE|DICT|INTERRES
    98   49  112 1    
    99   50   51 2    
   100   50   52 1    
   101   52   53 1    
   102   52   54 1    
   103   52  113 1    
   104   53  114 1    
   105   53  115 1    
   106   53  116 1    
   107   54   55 am   BACKBONE|DICT|INTERRES
   108   54  117 1    
   109   55   56 2    
   110   55   57 1    
   111   57   58 1    
   112   57   59 1    
   113   57  118 1    
   114   58  119 1    
   115   58  120 1    
   116   58  121 1    
   117   59   60 am   BACKBONE|DICT|INTERRES
   118   59  122 1    
   119   60   61 2    
   120   60   62 1    
   121   62   63 1    
   122   62   64 1    
   123   62  123 1    
   124   63  124 1    
   125   63  125 1    
   126   63  126 1    
   127   64   65 am   BACKBONE|DICT|INTERRES
   128   64  127 1    
   129   65   66 2    
@<TRIPOS>SUBSTRUCTURE
     1 UNK         1 GROUP             0       ****    0 ROOT    
