@<TRIPOS>MOLECULE
3R134
127   129    1
SMALL
USER_CHARGES


@<TRIPOS>ATOM
      1 CA         37.0466  -45.0241  -52.4381 C.3       0 UNK        -0.1968 
      2 C          36.4290  -45.1690  -53.8267 C.2       0 UNK         0.4852 
      3 O          37.1672  -45.3961  -54.7836 O.2       0 UNK        -0.5359 
      4 N          35.1039  -45.0541  -54.0084 N.am      1 UNK        -0.4300 
      5 CA         34.0386  -44.8032  -53.0197 C.3       1 UNK         0.0863 
      6 C6         34.1594  -43.4607  -52.2383 C.3       11 UNK        -0.0953 
      7 S7         34.5295  -42.0279  -53.3126 S.3       11 UNK        -0.2369 
      8 C8         32.8816  -41.2950  -53.5865 C.3       11 UNK         0.0226 
      9 C9         31.8929  -42.2830  -54.1922 C.ar      11 UNK        -0.0699 
     10 C10        32.1720  -42.9097  -55.4123 C.ar      11 UNK        -0.0804 
     11 C11        31.2981  -43.8680  -55.9336 C.ar      11 UNK        -0.0871 
     12 C12        30.1164  -44.1620  -55.2482 C.ar      11 UNK        -0.1008 
     13 C13        29.8071  -43.5155  -54.0494 C.ar      11 UNK        -0.0735 
     14 C14        30.7030  -42.5826  -53.5207 C.ar      11 UNK        -0.0945 
     15 C15        28.5096  -43.8420  -53.3276 C.3       11 UNK         0.0169 
     16 S16        27.0788  -43.1101  -54.1885 S.3       11 UNK        -0.2669 
     17 C17        25.8072  -44.4190  -54.0332 C.3       11 UNK        -0.0850 
     18 CA         25.0183  -44.6852  -55.3464 C.3       10 UNK         0.0855 
     19 C          23.9097  -43.6164  -55.5843 C.2       10 UNK         0.5543 
     20 N          23.9364  -42.8553  -56.6720 N.am      10 UNK        -0.7343 
     21 O          22.9990  -43.4866  -54.7698 O.2       10 UNK        -0.5027 
     22 N          25.9143  -44.9177  -56.4928 N.am      10 UNK        -0.4495 
     23 C          25.5818  -45.5781  -57.6106 C.2       10 UNK         0.4903 
     24 O          24.4954  -46.1327  -57.7805 O.2       10 UNK        -0.4860 
     25 CA         26.6142  -45.6041  -58.7495 C.3       9 UNK         0.0227 
     26 CB         27.7322  -44.5501  -58.6086 C.3       9 UNK        -0.1964 
     27 N          27.2171  -46.9323  -58.8217 N.am      9 UNK        -0.4231 
     28 C          26.9757  -47.8513  -59.7646 C.2       9 UNK         0.5014 
     29 O          26.2072  -47.6855  -60.7135 O.2       9 UNK        -0.5270 
     30 CA         27.7369  -49.1829  -59.6395 C.3       8 UNK         0.0284 
     31 CB         29.1974  -49.0236  -60.0948 C.3       8 UNK        -0.1977 
     32 N          27.7012  -49.7312  -58.2822 N.am      8 UNK        -0.4342 
     33 C          26.6170  -50.2806  -57.7159 C.2       8 UNK         0.5039 
     34 O          25.5405  -50.4288  -58.2959 O.2       8 UNK        -0.5547 
     35 CA         26.7523  -50.7510  -56.2571 C.3       7 UNK         0.0281 
     36 CB         27.3645  -52.1597  -56.1950 C.3       7 UNK        -0.1963 
     37 N          27.5465  -49.8313  -55.4413 N.am      7 UNK        -0.4444 
     38 C          27.1554  -48.5978  -55.0947 C.2       7 UNK         0.5104 
     39 O          26.0380  -48.1424  -55.3317 O.2       7 UNK        -0.5100 
     40 CA         28.1896  -47.7065  -54.3864 C.3       6 UNK         0.0396 
     41 CB         28.1186  -47.8861  -52.8628 C.3       6 UNK        -0.1801 
     42 N          29.5639  -47.9206  -54.8438 N.am      6 UNK        -0.4747 
     43 C          29.9977  -47.6802  -56.0896 C.2       6 UNK         0.5012 
     44 O          29.2825  -47.2427  -56.9887 O.2       6 UNK        -0.5003 
     45 CA         31.4667  -48.0281  -56.3836 C.3       5 UNK         0.0782 
     46 C46        32.4266  -46.9419  -55.8238 C.3       11 UNK        -0.0868 
     47 S47        33.0099  -45.7561  -57.0803 S.3       11 UNK        -0.2515 
     48 C48        31.6245  -44.5798  -57.2390 C.3       11 UNK         0.0199 
     49 N          31.7774  -49.3614  -55.8625 N.am      5 UNK        -0.4607 
     50 C          31.2698  -50.5066  -56.3391 C.2       4 UNK         0.5031 
     51 O          30.5355  -50.5699  -57.3249 O.2       4 UNK        -0.5119 
     52 CA         31.6028  -51.7897  -55.5564 C.3       4 UNK         0.0263 
     53 CB         32.9276  -52.3922  -56.0496 C.3       4 UNK        -0.1967 
     54 N          31.6725  -51.5704  -54.1076 N.am      4 UNK        -0.4237 
     55 C          30.6211  -51.2389  -53.3434 C.2       3 UNK         0.4908 
     56 O          29.4708  -51.1548  -53.7699 O.2       3 UNK        -0.5102 
     57 CA         30.9017  -50.8888  -51.8698 C.3       3 UNK         0.0241 
     58 CB         30.8533  -52.1539  -50.9985 C.3       3 UNK        -0.1971 
     59 N          32.1729  -50.1864  -51.6497 N.am      3 UNK        -0.4139 
     60 C          32.5239  -49.0306  -52.2317 C.2       2 UNK         0.5016 
     61 O          31.8045  -48.4300  -53.0342 O.2       2 UNK        -0.5319 
     62 CA         33.9332  -48.5009  -51.9083 C.3       2 UNK         0.0286 
     63 CB         35.0141  -49.4872  -52.3879 C.3       2 UNK        -0.1963 
     64 N          34.1834  -47.2099  -52.5510 N.am      2 UNK        -0.4790 
     65 C          33.7529  -46.0201  -52.1093 C.2       1 UNK         0.5024 
     66 O          33.1615  -45.8670  -51.0397 O.2       1 UNK        -0.4888 
     67 H67        37.1722  -43.9703  -52.1920 H         1 UNK         0.0892 
     68 H68        36.4503  -45.4981  -51.6615 H         1 UNK         0.0892 
     69 H69        38.0320  -45.4889  -52.4147 H         1 UNK         0.0892 
     70 H70        34.7650  -45.1359  -54.9573 H         1 UNK         0.3107 
     71 H71        33.1321  -44.7272  -53.6177 H         1 UNK         0.0773 
     72 H72        34.9354  -43.5201  -51.4753 H         1 UNK         0.0680 
     73 H73        33.2346  -43.2561  -51.6959 H         1 UNK         0.0680 
     74 H74        32.9831  -40.4394  -54.2553 H         1 UNK         0.0650 
     75 H75        32.5114  -40.9032  -52.6378 H         1 UNK         0.0650 
     76 H76        33.0899  -42.6793  -55.9361 H         1 UNK         0.1397 
     77 H77        29.4261  -44.8906  -55.6464 H         1 UNK         0.1363 
     78 H78        30.4752  -42.0934  -52.5836 H         1 UNK         0.1355 
     79 H79        28.4166  -44.9232  -53.2510 H         1 UNK         0.0707 
     80 H80        28.5309  -43.4698  -52.3022 H         1 UNK         0.0707 
     81 H81        26.2715  -45.3511  -53.7150 H         1 UNK         0.1034 
     82 H82        25.1324  -44.1540  -53.2168 H         1 UNK         0.1034 
     83 H83        24.4716  -45.6170  -55.1876 H         1 UNK         0.0482 
     84 H84        23.2098  -42.1719  -56.8154 H         1 UNK         0.3460 
     85 H85        24.6795  -42.9524  -57.3440 H         1 UNK         0.3460 
     86 H86        26.8136  -44.4637  -56.4366 H         1 UNK         0.2989 
     87 H87        26.0722  -45.3826  -59.6710 H         1 UNK         0.0559 
     88 H88        27.3214  -43.5422  -58.5366 H         1 UNK         0.0848 
     89 H89        28.3892  -44.5635  -59.4784 H         1 UNK         0.0848 
     90 H90        28.3537  -44.7224  -57.7312 H         1 UNK         0.0848 
     91 H91        27.8849  -47.1587  -58.0847 H         1 UNK         0.3144 
     92 H92        27.2571  -49.9028  -60.3061 H         1 UNK         0.0727 
     93 H93        29.7225  -49.9789  -60.0803 H         1 UNK         0.0790 
     94 H94        29.7496  -48.3310  -59.4590 H         1 UNK         0.0790 
     95 H95        29.2480  -48.6408  -61.1150 H         1 UNK         0.0790 
     96 H96        28.5635  -49.6956  -57.7506 H         1 UNK         0.3215 
     97 H97        25.7484  -50.7981  -55.8293 H         1 UNK         0.0863 
     98 H98        27.4033  -52.5302  -55.1705 H         1 UNK         0.0808 
     99 H99        28.3783  -52.1785  -56.5958 H         1 UNK         0.0808 
    100 H100       26.7712  -52.8684  -56.7742 H         1 UNK         0.0808 
    101 H101       28.4389  -50.1715  -55.0936 H         1 UNK         0.3118 
    102 H102       27.9344  -46.6752  -54.6287 H         1 UNK         0.0546 
    103 H103       28.3236  -48.9159  -52.5707 H         1 UNK         0.0828 
    104 H104       27.1262  -47.6339  -52.4871 H         1 UNK         0.0828 
    105 H105       28.8352  -47.2443  -52.3500 H         1 UNK         0.0828 
    106 H106       30.2393  -48.2472  -54.1562 H         1 UNK         0.3005 
    107 H107       31.5772  -48.0793  -57.4694 H         1 UNK         0.1257 
    108 H108       33.3291  -47.4150  -55.4349 H         1 UNK         0.0775 
    109 H109       32.0051  -46.4082  -54.9700 H         1 UNK         0.0775 
    110 H110       31.8844  -43.8355  -57.9930 H         1 UNK         0.0840 
    111 H111       30.7527  -45.1048  -57.6290 H         1 UNK         0.0840 
    112 H112       32.2900  -49.3853  -54.9925 H         1 UNK         0.2987 
    113 H113       30.8058  -52.5109  -55.7505 H         1 UNK         0.0785 
    114 H114       32.8922  -52.5831  -57.1232 H         1 UNK         0.0798 
    115 H115       33.1372  -53.3438  -55.5605 H         1 UNK         0.0798 
    116 H116       33.7710  -51.7256  -55.8650 H         1 UNK         0.0798 
    117 H117       32.5823  -51.6331  -53.6750 H         1 UNK         0.3079 
    118 H118       30.1046  -50.2202  -51.5398 H         1 UNK         0.0794 
    119 H119       30.9402  -51.9105  -49.9394 H         1 UNK         0.0786 
    120 H120       31.6534  -52.8510  -51.2507 H         1 UNK         0.0786 
    121 H121       29.9075  -52.6818  -51.1300 H         1 UNK         0.0786 
    122 H122       32.8186  -50.6199  -51.0051 H         1 UNK         0.3032 
    123 H123       34.0108  -48.3812  -50.8251 H         1 UNK         0.1094 
    124 H124       34.9423  -49.6785  -53.4595 H         1 UNK         0.0794 
    125 H125       36.0147  -49.1040  -52.1855 H         1 UNK         0.0794 
    126 H126       34.9367  -50.4481  -51.8782 H         1 UNK         0.0794 
    127 H127       34.6450  -47.2382  -53.4478 H         1 UNK         0.3016 
@<TRIPOS>BOND
     1    1    2 1    
     2    1   67 1    
     3    1   68 1    
     4    1   69 1    
     5    2    3 2    
     6    2    4 am   BACKBONE|DICT|INTERRES
     7    4    5 1    
     8    4   70 1    
     9    5    6 1    
    10    5   65 1    
    11    5   71 1    
    12    6    7 1    
    13    6   72 1    
    14    6   73 1    
    15    7    8 1    
    16    8    9 1    
    17    8   74 1    
    18    8   75 1    
    19    9   10 ar   
    20    9   14 ar   
    21   10   11 ar   
    22   10   76 1    
    23   11   12 ar   
    24   11   48 1    
    25   12   13 ar   
    26   12   77 1    
    27   13   14 ar   
    28   13   15 1    
    29   14   78 1    
    30   15   16 1    
    31   15   79 1    
    32   15   80 1    
    33   16   17 1    
    34   17   18 1    
    35   17   81 1    
    36   17   82 1    
    37   18   19 1    
    38   18   22 1    
    39   18   83 1    
    40   19   20 am   BACKBONE|DICT|INTERRES
    41   19   21 2    
    42   20   84 1    
    43   20   85 1    
    44   22   23 am   BACKBONE|DICT|INTERRES
    45   22   86 1    
    46   23   24 2    
    47   23   25 1    
    48   25   26 1    
    49   25   27 1    
    50   25   87 1    
    51   26   88 1    
    52   26   89 1    
    53   26   90 1    
    54   27   28 am   BACKBONE|DICT|INTERRES
    55   27   91 1    
    56   28   29 2    
    57   28   30 1    
    58   30   31 1    
    59   30   32 1    
    60   30   92 1    
    61   31   93 1    
    62   31   94 1    
    63   31   95 1    
    64   32   33 am   BACKBONE|DICT|INTERRES
    65   32   96 1    
    66   33   34 2    
    67   33   35 1    
    68   35   36 1    
    69   35   37 1    
    70   35   97 1    
    71   36   98 1    
    72   36   99 1    
    73   36  100 1    
    74   37   38 am   BACKBONE|DICT|INTERRES
    75   37  101 1    
    76   38   39 2    
    77   38   40 1    
    78   40   41 1    
    79   40   42 1    
    80   40  102 1    
    81   41  103 1    
    82   41  104 1    
    83   41  105 1    
    84   42   43 am   BACKBONE|DICT|INTERRES
    85   42  106 1    
    86   43   44 2    
    87   43   45 1    
    88   45   46 1    
    89   45   49 1    
    90   45  107 1    
    91   46   47 1    
    92   46  108 1    
    93   46  109 1    
    94   47   48 1    
    95   48  110 1    
    96   48  111 1    
    97   49   50 am   BACKBONE|DICT|INTERRES
    98   49  112 1    
    99   50   51 2    
   100   50   52 1    
   101   52   53 1    
   102   52   54 1    
   103   52  113 1    
   104   53  114 1    
   105   53  115 1    
   106   53  116 1    
   107   54   55 am   BACKBONE|DICT|INTERRES
   108   54  117 1    
   109   55   56 2    
   110   55   57 1    
   111   57   58 1    
   112   57   59 1    
   113   57  118 1    
   114   58  119 1    
   115   58  120 1    
   116   58  121 1    
   117   59   60 am   BACKBONE|DICT|INTERRES
   118   59  122 1    
   119   60   61 2    
   120   60   62 1    
   121   62   63 1    
   122   62   64 1    
   123   62  123 1    
   124   63  124 1    
   125   63  125 1    
   126   63  126 1    
   127   64   65 am   BACKBONE|DICT|INTERRES
   128   64  127 1    
   129   65   66 2    
@<TRIPOS>SUBSTRUCTURE
     1 UNK         1 GROUP             0       ****    0 ROOT    
