@<TRIPOS>MOLECULE
3R134
127   129    1
SMALL
USER_CHARGES


@<TRIPOS>ATOM
      1 CA         35.8010  -43.9849  -47.5484 C.3       0 UNK        -0.1968 
      2 C          36.0474  -44.5134  -48.9541 C.2       0 UNK         0.4852 
      3 O          37.0475  -45.1960  -49.1839 O.2       0 UNK        -0.5359 
      4 N          35.1496  -44.1953  -49.8952 N.am      1 UNK        -0.4300 
      5 CA         35.1774  -44.6711  -51.2813 C.3       1 UNK         0.0863 
      6 C6         34.3672  -43.7404  -52.2217 C.3       11 UNK        -0.0953 
      7 S7         32.6349  -43.4375  -51.7195 S.3       11 UNK        -0.2369 
      8 C8         31.7152  -44.7206  -52.6268 C.3       11 UNK         0.0226 
      9 C9         31.4822  -44.3695  -54.0902 C.ar      11 UNK        -0.0699 
     10 C10        32.4359  -44.6913  -55.0597 C.ar      11 UNK        -0.0804 
     11 C11        32.2229  -44.3748  -56.4048 C.ar      11 UNK        -0.0871 
     12 C12        31.0272  -43.7589  -56.7836 C.ar      11 UNK        -0.1008 
     13 C13        30.0488  -43.4646  -55.8294 C.ar      11 UNK        -0.0735 
     14 C14        30.2882  -43.7587  -54.4831 C.ar      11 UNK        -0.0945 
     15 C15        28.7326  -42.8304  -56.2492 C.3       11 UNK         0.0169 
     16 S16        27.7029  -43.9956  -57.2002 S.3       11 UNK        -0.2669 
     17 C17        26.0331  -43.3376  -56.8717 C.3       11 UNK        -0.0850 
     18 CA         25.1765  -44.3571  -56.0621 C.3       10 UNK         0.0855 
     19 C          24.0156  -43.6919  -55.2563 C.2       10 UNK         0.5543 
     20 N          22.9125  -44.3846  -54.9984 N.am      10 UNK        -0.7343 
     21 O          24.1236  -42.5468  -54.8239 O.2       10 UNK        -0.5027 
     22 N          24.7761  -45.5279  -56.8699 N.am      10 UNK        -0.4495 
     23 C          23.9132  -45.5044  -57.8984 C.2       10 UNK         0.4903 
     24 O          23.3864  -44.4741  -58.3231 O.2       10 UNK        -0.4860 
     25 CA         23.5458  -46.8601  -58.5358 C.3       9 UNK         0.0227 
     26 CB         22.7077  -46.7119  -59.8243 C.3       9 UNK        -0.1964 
     27 N          24.6954  -47.7371  -58.7734 N.am      9 UNK        -0.4231 
     28 C          25.7770  -47.5028  -59.5297 C.2       9 UNK         0.5014 
     29 O          25.9739  -46.4533  -60.1450 O.2       9 UNK        -0.5270 
     30 CA         26.7988  -48.6576  -59.6199 C.3       8 UNK         0.0284 
     31 CB         28.0526  -48.2811  -60.4315 C.3       8 UNK        -0.1977 
     32 N          27.2023  -49.1451  -58.2954 N.am      8 UNK        -0.4342 
     33 C          26.4630  -49.9494  -57.5146 C.2       8 UNK         0.5039 
     34 O          25.3678  -50.3941  -57.8629 O.2       8 UNK        -0.5547 
     35 CA         26.9760  -50.2876  -56.1020 C.3       7 UNK         0.0281 
     36 CB         27.5749  -51.7027  -56.0749 C.3       7 UNK        -0.1963 
     37 N          27.9560  -49.3420  -55.5689 N.am      7 UNK        -0.4444 
     38 C          27.7568  -48.0326  -55.3634 C.2       7 UNK         0.5104 
     39 O          26.6773  -47.4646  -55.5382 O.2       7 UNK        -0.5100 
     40 CA         28.9894  -47.2228  -54.9192 C.3       6 UNK         0.0396 
     41 CB         29.0723  -47.2182  -53.3855 C.3       6 UNK        -0.1801 
     42 N          30.2591  -47.7143  -55.4803 N.am      6 UNK        -0.4747 
     43 C          30.5223  -47.8530  -56.7916 C.2       6 UNK         0.5012 
     44 O          29.7096  -47.5921  -57.6777 O.2       6 UNK        -0.5003 
     45 CA         31.8754  -48.4824  -57.1821 C.3       5 UNK         0.0782 
     46 C46        33.0572  -47.4860  -57.1662 C.3       11 UNK        -0.0868 
     47 S47        32.9097  -46.1706  -58.4213 S.3       11 UNK        -0.2515 
     48 C48        33.2911  -44.6813  -57.4455 C.3       11 UNK         0.0199 
     49 N          32.1491  -49.6337  -56.3244 N.am      5 UNK        -0.4607 
     50 C          31.6575  -50.8627  -56.5292 C.2       4 UNK         0.5031 
     51 O          31.0095  -51.1821  -57.5252 O.2       4 UNK        -0.5119 
     52 CA         31.9191  -51.9146  -55.4354 C.3       4 UNK         0.0263 
     53 CB         33.1570  -52.7556  -55.7856 C.3       4 UNK        -0.1967 
     54 N          32.0913  -51.3325  -54.1012 N.am      4 UNK        -0.4237 
     55 C          31.1268  -50.7008  -53.4163 C.2       3 UNK         0.4908 
     56 O          29.9663  -50.5979  -53.8113 O.2       3 UNK        -0.5102 
     57 CA         31.5370  -50.0292  -52.0936 C.3       3 UNK         0.0241 
     58 CB         31.3420  -50.9972  -50.9162 C.3       3 UNK        -0.1971 
     59 N          32.9146  -49.5221  -52.0911 N.am      3 UNK        -0.4139 
     60 C          33.3779  -48.5636  -52.9056 C.2       2 UNK         0.5016 
     61 O          32.6952  -48.0124  -53.7725 O.2       2 UNK        -0.5319 
     62 CA         34.8713  -48.2157  -52.7828 C.3       2 UNK         0.0286 
     63 CB         35.6140  -48.6139  -54.0695 C.3       2 UNK        -0.1963 
     64 N          35.1108  -46.7951  -52.5115 N.am      2 UNK        -0.4790 
     65 C          34.7539  -46.1554  -51.3882 C.2       1 UNK         0.5024 
     66 O          34.1284  -46.6926  -50.4698 O.2       1 UNK        -0.4888 
     67 H67        34.8923  -43.3857  -47.4914 H         1 UNK         0.0892 
     68 H68        36.6371  -43.3634  -47.2288 H         1 UNK         0.0892 
     69 H69        35.7045  -44.8140  -46.8480 H         1 UNK         0.0892 
     70 H70        34.3300  -43.6602  -49.6453 H         1 UNK         0.3107 
     71 H71        36.2174  -44.6267  -51.6132 H         1 UNK         0.0773 
     72 H72        34.8555  -42.7650  -52.2450 H         1 UNK         0.0680 
     73 H73        34.4134  -44.0910  -53.2496 H         1 UNK         0.0680 
     74 H74        32.2245  -45.6793  -52.5468 H         1 UNK         0.0650 
     75 H75        30.7561  -44.8500  -52.1243 H         1 UNK         0.0650 
     76 H76        33.3437  -45.1986  -54.7692 H         1 UNK         0.1397 
     77 H77        30.8479  -43.5263  -57.8246 H         1 UNK         0.1363 
     78 H78        29.5377  -43.5272  -53.7398 H         1 UNK         0.1355 
     79 H79        28.9254  -41.9425  -56.8530 H         1 UNK         0.0707 
     80 H80        28.1893  -42.4926  -55.3655 H         1 UNK         0.0707 
     81 H81        25.5577  -43.0889  -57.8209 H         1 UNK         0.1034 
     82 H82        26.1290  -42.3874  -56.3450 H         1 UNK         0.1034 
     83 H83        25.8177  -44.7619  -55.2779 H         1 UNK         0.0482 
     84 H84        22.8160  -45.3313  -55.3282 H         1 UNK         0.3460 
     85 H85        22.1713  -43.9549  -54.4676 H         1 UNK         0.3460 
     86 H86        25.1987  -46.4054  -56.5860 H         1 UNK         0.2989 
     87 H87        22.9242  -47.3753  -57.8023 H         1 UNK         0.0559 
     88 H88        22.4272  -47.6837  -60.2304 H         1 UNK         0.0848 
     89 H89        23.2503  -46.1686  -60.5988 H         1 UNK         0.0848 
     90 H90        21.7837  -46.1655  -59.6310 H         1 UNK         0.0848 
     91 H91        24.6598  -48.6493  -58.3239 H         1 UNK         0.3144 
     92 H92        26.3059  -49.4751  -60.1505 H         1 UNK         0.0727 
     93 H93        28.7710  -49.1004  -60.4613 H         1 UNK         0.0790 
     94 H94        28.5555  -47.4074  -60.0157 H         1 UNK         0.0790 
     95 H95        27.7903  -48.0416  -61.4627 H         1 UNK         0.0790 
     96 H96        28.0626  -48.7526  -57.9228 H         1 UNK         0.3215 
     97 H97        26.1124  -50.2680  -55.4341 H         1 UNK         0.0863 
     98 H98        27.8647  -51.9932  -55.0648 H         1 UNK         0.0808 
     99 H99        28.4566  -51.7784  -56.7119 H         1 UNK         0.0808 
    100 H100       26.8529  -52.4401  -56.4283 H         1 UNK         0.0808 
    101 H101       28.8544  -49.7253  -55.2926 H         1 UNK         0.3118 
    102 H102       28.8635  -46.1964  -55.2672 H         1 UNK         0.0546 
    103 H103       28.2955  -46.5824  -52.9597 H         1 UNK         0.0828 
    104 H104       30.0325  -46.8491  -53.0345 H         1 UNK         0.0828 
    105 H105       28.9356  -48.2166  -52.9695 H         1 UNK         0.0828 
    106 H106       31.0023  -47.9202  -54.8190 H         1 UNK         0.3005 
    107 H107       31.7706  -48.8398  -58.2098 H         1 UNK         0.1257 
    108 H108       33.9860  -48.0196  -57.3735 H         1 UNK         0.0775 
    109 H109       33.1829  -47.0585  -56.1735 H         1 UNK         0.0775 
    110 H110       34.2681  -44.7993  -56.9740 H         1 UNK         0.0840 
    111 H111       33.3857  -43.8327  -58.1247 H         1 UNK         0.0840 
    112 H112       32.6238  -49.4330  -55.4543 H         1 UNK         0.2987 
    113 H113       31.0505  -52.5761  -55.4040 H         1 UNK         0.0785 
    114 H114       34.0634  -52.1494  -55.8160 H         1 UNK         0.0798 
    115 H115       33.0454  -53.2237  -56.7649 H         1 UNK         0.0798 
    116 H116       33.3110  -53.5566  -55.0623 H         1 UNK         0.0798 
    117 H117       33.0138  -51.3839  -53.6948 H         1 UNK         0.3079 
    118 H118       30.8762  -49.1742  -51.9420 H         1 UNK         0.0794 
    119 H119       32.0002  -51.8638  -50.9898 H         1 UNK         0.0786 
    120 H120       30.3165  -51.3685  -50.8830 H         1 UNK         0.0786 
    121 H121       31.5367  -50.5064  -49.9623 H         1 UNK         0.0786 
    122 H122       33.5386  -49.9210  -51.4040 H         1 UNK         0.3032 
    123 H123       35.2988  -48.7856  -51.9546 H         1 UNK         0.1094 
    124 H124       36.6883  -48.4551  -53.9734 H         1 UNK         0.0794 
    125 H125       35.4651  -49.6700  -54.2990 H         1 UNK         0.0794 
    126 H126       35.2669  -48.0418  -54.9309 H         1 UNK         0.0794 
    127 H127       35.6043  -46.2822  -53.2275 H         1 UNK         0.3016 
@<TRIPOS>BOND
     1    1    2 1    
     2    1   67 1    
     3    1   68 1    
     4    1   69 1    
     5    2    3 2    
     6    2    4 am   BACKBONE|DICT|INTERRES
     7    4    5 1    
     8    4   70 1    
     9    5    6 1    
    10    5   65 1    
    11    5   71 1    
    12    6    7 1    
    13    6   72 1    
    14    6   73 1    
    15    7    8 1    
    16    8    9 1    
    17    8   74 1    
    18    8   75 1    
    19    9   10 ar   
    20    9   14 ar   
    21   10   11 ar   
    22   10   76 1    
    23   11   12 ar   
    24   11   48 1    
    25   12   13 ar   
    26   12   77 1    
    27   13   14 ar   
    28   13   15 1    
    29   14   78 1    
    30   15   16 1    
    31   15   79 1    
    32   15   80 1    
    33   16   17 1    
    34   17   18 1    
    35   17   81 1    
    36   17   82 1    
    37   18   19 1    
    38   18   22 1    
    39   18   83 1    
    40   19   20 am   BACKBONE|DICT|INTERRES
    41   19   21 2    
    42   20   84 1    
    43   20   85 1    
    44   22   23 am   BACKBONE|DICT|INTERRES
    45   22   86 1    
    46   23   24 2    
    47   23   25 1    
    48   25   26 1    
    49   25   27 1    
    50   25   87 1    
    51   26   88 1    
    52   26   89 1    
    53   26   90 1    
    54   27   28 am   BACKBONE|DICT|INTERRES
    55   27   91 1    
    56   28   29 2    
    57   28   30 1    
    58   30   31 1    
    59   30   32 1    
    60   30   92 1    
    61   31   93 1    
    62   31   94 1    
    63   31   95 1    
    64   32   33 am   BACKBONE|DICT|INTERRES
    65   32   96 1    
    66   33   34 2    
    67   33   35 1    
    68   35   36 1    
    69   35   37 1    
    70   35   97 1    
    71   36   98 1    
    72   36   99 1    
    73   36  100 1    
    74   37   38 am   BACKBONE|DICT|INTERRES
    75   37  101 1    
    76   38   39 2    
    77   38   40 1    
    78   40   41 1    
    79   40   42 1    
    80   40  102 1    
    81   41  103 1    
    82   41  104 1    
    83   41  105 1    
    84   42   43 am   BACKBONE|DICT|INTERRES
    85   42  106 1    
    86   43   44 2    
    87   43   45 1    
    88   45   46 1    
    89   45   49 1    
    90   45  107 1    
    91   46   47 1    
    92   46  108 1    
    93   46  109 1    
    94   47   48 1    
    95   48  110 1    
    96   48  111 1    
    97   49   50 am   BACKBONE|DICT|INTERRES
    98   49  112 1    
    99   50   51 2    
   100   50   52 1    
   101   52   53 1    
   102   52   54 1    
   103   52  113 1    
   104   53  114 1    
   105   53  115 1    
   106   53  116 1    
   107   54   55 am   BACKBONE|DICT|INTERRES
   108   54  117 1    
   109   55   56 2    
   110   55   57 1    
   111   57   58 1    
   112   57   59 1    
   113   57  118 1    
   114   58  119 1    
   115   58  120 1    
   116   58  121 1    
   117   59   60 am   BACKBONE|DICT|INTERRES
   118   59  122 1    
   119   60   61 2    
   120   60   62 1    
   121   62   63 1    
   122   62   64 1    
   123   62  123 1    
   124   63  124 1    
   125   63  125 1    
   126   63  126 1    
   127   64   65 am   BACKBONE|DICT|INTERRES
   128   64  127 1    
   129   65   66 2    
@<TRIPOS>SUBSTRUCTURE
     1 UNK         1 GROUP             0       ****    0 ROOT    
