@<TRIPOS>MOLECULE
3R134
127   129    1
SMALL
USER_CHARGES


@<TRIPOS>ATOM
      1 CA         36.4225  -47.5036  -56.7708 C.3       0 UNK        -0.1968 
      2 C          35.3397  -47.1330  -55.7701 C.2       0 UNK         0.4852 
      3 O          34.3938  -47.9016  -55.5862 O.2       0 UNK        -0.5359 
      4 N          35.4767  -45.9733  -55.1115 N.am      1 UNK        -0.4300 
      5 CA         34.5517  -45.3711  -54.1355 C.3       1 UNK         0.0863 
      6 C6         34.8652  -43.8628  -53.9562 C.3       11 UNK        -0.0953 
      7 S7         34.2797  -42.8947  -55.3877 S.3       11 UNK        -0.2369 
      8 C8         33.1296  -41.7155  -54.6062 C.3       11 UNK         0.0226 
      9 C9         31.8287  -42.3636  -54.1447 C.ar      11 UNK        -0.0699 
     10 C10        31.7033  -42.8447  -52.8371 C.ar      11 UNK        -0.0804 
     11 C11        30.4996  -43.3926  -52.3855 C.ar      11 UNK        -0.0871 
     12 C12        29.4016  -43.4276  -53.2513 C.ar      11 UNK        -0.1008 
     13 C13        29.5092  -42.9491  -54.5602 C.ar      11 UNK        -0.0735 
     14 C14        30.7281  -42.4272  -55.0057 C.ar      11 UNK        -0.0945 
     15 C15        28.2877  -42.9548  -55.4660 C.3       11 UNK         0.0169 
     16 S16        28.1401  -44.5058  -56.4044 S.3       11 UNK        -0.2669 
     17 C17        28.8976  -44.0400  -58.0006 C.3       11 UNK        -0.0850 
     18 CA         27.8801  -43.3508  -58.9577 C.3       10 UNK         0.0855 
     19 C          28.5469  -42.7560  -60.2363 C.2       10 UNK         0.5543 
     20 N          27.8374  -42.6408  -61.3522 N.am      10 UNK        -0.7343 
     21 O          29.7094  -42.3589  -60.2112 O.2       10 UNK        -0.5027 
     22 N          26.6760  -44.1726  -59.1879 N.am      10 UNK        -0.4495 
     23 C          26.6063  -45.3119  -59.8895 C.2       10 UNK         0.4903 
     24 O          27.5375  -45.7881  -60.5408 O.2       10 UNK        -0.4860 
     25 CA         25.2570  -46.0489  -59.7976 C.3       9 UNK         0.0227 
     26 CB         25.0602  -47.1026  -60.9092 C.3       9 UNK        -0.1964 
     27 N          25.0721  -46.6284  -58.4588 N.am      9 UNK        -0.4231 
     28 C          25.8167  -47.5816  -57.8746 C.2       9 UNK         0.5014 
     29 O          26.7216  -48.1949  -58.4469 O.2       9 UNK        -0.5270 
     30 CA         25.5181  -47.8615  -56.3862 C.3       8 UNK         0.0284 
     31 CB         24.0096  -47.9051  -56.0504 C.3       8 UNK        -0.1977 
     32 N          26.2252  -49.0545  -55.9063 N.am      8 UNK        -0.4342 
     33 C          25.9765  -50.3382  -56.2027 C.2       8 UNK         0.5039 
     34 O          24.9812  -50.7319  -56.8137 O.2       8 UNK        -0.5547 
     35 CA         27.0276  -51.3735  -55.7625 C.3       7 UNK         0.0281 
     36 CB         28.0170  -51.6402  -56.9083 C.3       7 UNK        -0.1963 
     37 N          27.7736  -51.0003  -54.5560 N.am      7 UNK        -0.4444 
     38 C          27.2638  -51.0196  -53.3162 C.2       7 UNK         0.5104 
     39 O          26.0989  -51.3261  -53.0594 O.2       7 UNK        -0.5100 
     40 CA         28.2141  -50.6486  -52.1628 C.3       6 UNK         0.0396 
     41 CB         29.1360  -51.8278  -51.8135 C.3       6 UNK        -0.1801 
     42 N          29.0249  -49.4646  -52.4475 N.am      6 UNK        -0.4747 
     43 C          28.5413  -48.2175  -52.5512 C.2       6 UNK         0.5012 
     44 O          27.3596  -47.9237  -52.3660 O.2       6 UNK        -0.5003 
     45 CA         29.5429  -47.1230  -52.9796 C.3       5 UNK         0.0782 
     46 C46        30.3876  -46.6068  -51.7870 C.3       11 UNK        -0.0868 
     47 S47        29.4504  -45.4387  -50.7461 S.3       11 UNK        -0.2515 
     48 C48        30.3973  -43.8905  -50.9449 C.3       11 UNK         0.0199 
     49 N          30.3860  -47.5704  -54.0912 N.am      5 UNK        -0.4607 
     50 C          29.9225  -47.8982  -55.3055 C.2       4 UNK         0.5031 
     51 O          28.7396  -47.8302  -55.6241 O.2       4 UNK        -0.5119 
     52 CA         30.9381  -48.4455  -56.3176 C.3       4 UNK         0.0263 
     53 CB         31.5971  -47.2912  -57.0893 C.3       4 UNK        -0.1967 
     54 N          31.9629  -49.2758  -55.6808 N.am      4 UNK        -0.4237 
     55 C          31.7187  -50.4509  -55.0801 C.2       3 UNK         0.4908 
     56 O          30.6119  -50.9876  -55.0502 O.2       3 UNK        -0.5102 
     57 CA         32.8906  -51.1048  -54.3314 C.3       3 UNK         0.0241 
     58 CB         33.8678  -51.7663  -55.3162 C.3       3 UNK        -0.1971 
     59 N          33.6101  -50.1463  -53.4900 N.am      3 UNK        -0.4139 
     60 C          33.0832  -49.5121  -52.4312 C.2       2 UNK         0.5016 
     61 O          31.9472  -49.7133  -52.0030 O.2       2 UNK        -0.5319 
     62 CA         33.9323  -48.3915  -51.8255 C.3       2 UNK         0.0286 
     63 CB         35.2209  -48.9195  -51.1702 C.3       2 UNK        -0.1963 
     64 N          34.2365  -47.4508  -52.8967 N.am      2 UNK        -0.4790 
     65 C          34.4729  -46.1434  -52.7931 C.2       1 UNK         0.5024 
     66 O          34.5914  -45.5609  -51.7143 O.2       1 UNK        -0.4888 
     67 H67        37.1979  -46.7407  -56.8361 H         1 UNK         0.0892 
     68 H68        36.8924  -48.4434  -56.4822 H         1 UNK         0.0892 
     69 H69        35.9862  -47.6307  -57.7610 H         1 UNK         0.0892 
     70 H70        36.2927  -45.4118  -55.3078 H         1 UNK         0.3107 
     71 H71        33.5452  -45.4491  -54.5535 H         1 UNK         0.0773 
     72 H72        35.9377  -43.7023  -53.8348 H         1 UNK         0.0680 
     73 H73        34.4140  -43.4543  -53.0547 H         1 UNK         0.0680 
     74 H74        33.6273  -41.2240  -53.7686 H         1 UNK         0.0650 
     75 H75        32.9071  -40.9253  -55.3248 H         1 UNK         0.0650 
     76 H76        32.5388  -42.7735  -52.1555 H         1 UNK         0.1397 
     77 H77        28.4554  -43.8197  -52.9044 H         1 UNK         0.1363 
     78 H78        30.8131  -42.0434  -56.0130 H         1 UNK         0.1355 
     79 H79        27.3859  -42.8305  -54.8645 H         1 UNK         0.0707 
     80 H80        28.3123  -42.0997  -56.1428 H         1 UNK         0.0707 
     81 H81        29.2990  -44.9405  -58.4675 H         1 UNK         0.1034 
     82 H82        29.7560  -43.3958  -57.8042 H         1 UNK         0.1034 
     83 H83        27.5113  -42.4679  -58.4350 H         1 UNK         0.0482 
     84 H84        26.8821  -42.9591  -61.3831 H         1 UNK         0.3460 
     85 H85        28.2670  -42.2459  -62.1739 H         1 UNK         0.3460 
     86 H86        25.8500  -43.8642  -58.6963 H         1 UNK         0.2989 
     87 H87        24.4733  -45.3000  -59.9232 H         1 UNK         0.0559 
     88 H88        25.8233  -47.8808  -60.8819 H         1 UNK         0.0848 
     89 H89        25.1121  -46.6381  -61.8946 H         1 UNK         0.0848 
     90 H90        24.0869  -47.5865  -60.8289 H         1 UNK         0.0848 
     91 H91        24.3603  -46.1874  -57.8933 H         1 UNK         0.3144 
     92 H92        25.9561  -47.0305  -55.8308 H         1 UNK         0.0727 
     93 H93        23.4658  -48.5872  -56.7048 H         1 UNK         0.0790 
     94 H94        23.5506  -46.9215  -56.1513 H         1 UNK         0.0790 
     95 H95        23.8441  -48.2269  -55.0220 H         1 UNK         0.0790 
     96 H96        27.1396  -48.8423  -55.5132 H         1 UNK         0.3215 
     97 H97        26.4975  -52.3053  -55.5532 H         1 UNK         0.0863 
     98 H98        28.5844  -50.7443  -57.1629 H         1 UNK         0.0808 
     99 H99        27.4935  -51.9605  -57.8101 H         1 UNK         0.0808 
    100 H100       28.7268  -52.4255  -56.6478 H         1 UNK         0.0808 
    101 H101       28.7641  -50.7976  -54.6747 H         1 UNK         0.3118 
    102 H102       27.6021  -50.4308  -51.2849 H         1 UNK         0.0546 
    103 H103       29.7568  -51.6013  -50.9465 H         1 UNK         0.0828 
    104 H104       29.8005  -52.0820  -52.6400 H         1 UNK         0.0828 
    105 H105       28.5558  -52.7199  -51.5739 H         1 UNK         0.0828 
    106 H106       30.0238  -49.6110  -52.5637 H         1 UNK         0.3005 
    107 H107       28.9524  -46.2911  -53.3710 H         1 UNK         0.1257 
    108 H108       31.2843  -46.1028  -52.1505 H         1 UNK         0.0775 
    109 H109       30.7448  -47.4274  -51.1625 H         1 UNK         0.0775 
    110 H110       29.9247  -43.1136  -50.3428 H         1 UNK         0.0840 
    111 H111       31.3916  -44.0444  -50.5218 H         1 UNK         0.0840 
    112 H112       31.3669  -47.6951  -53.8995 H         1 UNK         0.2987 
    113 H113       30.3971  -49.0689  -57.0323 H         1 UNK         0.0785 
    114 H114       32.3132  -47.6605  -57.8235 H         1 UNK         0.0798 
    115 H115       30.8478  -46.7105  -57.6284 H         1 UNK         0.0798 
    116 H116       32.1218  -46.6046  -56.4241 H         1 UNK         0.0798 
    117 H117       32.9079  -48.8931  -55.6656 H         1 UNK         0.3079 
    118 H118       32.4790  -51.8802  -53.6816 H         1 UNK         0.0794 
    119 H119       34.6560  -52.3052  -54.7901 H         1 UNK         0.0786 
    120 H120       34.3417  -51.0343  -55.9720 H         1 UNK         0.0786 
    121 H121       33.3519  -52.4881  -55.9511 H         1 UNK         0.0786 
    122 H122       34.5482  -49.9103  -53.7799 H         1 UNK         0.3032 
    123 H123       33.3305  -47.8880  -51.0652 H         1 UNK         0.1094 
    124 H124       35.8882  -49.3875  -51.8945 H         1 UNK         0.0794 
    125 H125       35.7721  -48.1142  -50.6842 H         1 UNK         0.0794 
    126 H126       34.9923  -49.6623  -50.4048 H         1 UNK         0.0794 
    127 H127       34.1811  -47.8125  -53.8488 H         1 UNK         0.3016 
@<TRIPOS>BOND
     1    1    2 1    
     2    1   67 1    
     3    1   68 1    
     4    1   69 1    
     5    2    3 2    
     6    2    4 am   BACKBONE|DICT|INTERRES
     7    4    5 1    
     8    4   70 1    
     9    5    6 1    
    10    5   65 1    
    11    5   71 1    
    12    6    7 1    
    13    6   72 1    
    14    6   73 1    
    15    7    8 1    
    16    8    9 1    
    17    8   74 1    
    18    8   75 1    
    19    9   10 ar   
    20    9   14 ar   
    21   10   11 ar   
    22   10   76 1    
    23   11   12 ar   
    24   11   48 1    
    25   12   13 ar   
    26   12   77 1    
    27   13   14 ar   
    28   13   15 1    
    29   14   78 1    
    30   15   16 1    
    31   15   79 1    
    32   15   80 1    
    33   16   17 1    
    34   17   18 1    
    35   17   81 1    
    36   17   82 1    
    37   18   19 1    
    38   18   22 1    
    39   18   83 1    
    40   19   20 am   BACKBONE|DICT|INTERRES
    41   19   21 2    
    42   20   84 1    
    43   20   85 1    
    44   22   23 am   BACKBONE|DICT|INTERRES
    45   22   86 1    
    46   23   24 2    
    47   23   25 1    
    48   25   26 1    
    49   25   27 1    
    50   25   87 1    
    51   26   88 1    
    52   26   89 1    
    53   26   90 1    
    54   27   28 am   BACKBONE|DICT|INTERRES
    55   27   91 1    
    56   28   29 2    
    57   28   30 1    
    58   30   31 1    
    59   30   32 1    
    60   30   92 1    
    61   31   93 1    
    62   31   94 1    
    63   31   95 1    
    64   32   33 am   BACKBONE|DICT|INTERRES
    65   32   96 1    
    66   33   34 2    
    67   33   35 1    
    68   35   36 1    
    69   35   37 1    
    70   35   97 1    
    71   36   98 1    
    72   36   99 1    
    73   36  100 1    
    74   37   38 am   BACKBONE|DICT|INTERRES
    75   37  101 1    
    76   38   39 2    
    77   38   40 1    
    78   40   41 1    
    79   40   42 1    
    80   40  102 1    
    81   41  103 1    
    82   41  104 1    
    83   41  105 1    
    84   42   43 am   BACKBONE|DICT|INTERRES
    85   42  106 1    
    86   43   44 2    
    87   43   45 1    
    88   45   46 1    
    89   45   49 1    
    90   45  107 1    
    91   46   47 1    
    92   46  108 1    
    93   46  109 1    
    94   47   48 1    
    95   48  110 1    
    96   48  111 1    
    97   49   50 am   BACKBONE|DICT|INTERRES
    98   49  112 1    
    99   50   51 2    
   100   50   52 1    
   101   52   53 1    
   102   52   54 1    
   103   52  113 1    
   104   53  114 1    
   105   53  115 1    
   106   53  116 1    
   107   54   55 am   BACKBONE|DICT|INTERRES
   108   54  117 1    
   109   55   56 2    
   110   55   57 1    
   111   57   58 1    
   112   57   59 1    
   113   57  118 1    
   114   58  119 1    
   115   58  120 1    
   116   58  121 1    
   117   59   60 am   BACKBONE|DICT|INTERRES
   118   59  122 1    
   119   60   61 2    
   120   60   62 1    
   121   62   63 1    
   122   62   64 1    
   123   62  123 1    
   124   63  124 1    
   125   63  125 1    
   126   63  126 1    
   127   64   65 am   BACKBONE|DICT|INTERRES
   128   64  127 1    
   129   65   66 2    
@<TRIPOS>SUBSTRUCTURE
     1 UNK         1 GROUP             0       ****    0 ROOT    
