@<TRIPOS>MOLECULE
3R134
127   129    1
SMALL
USER_CHARGES


@<TRIPOS>ATOM
      1 CA         36.5271  -46.3729  -47.5359 C.3       0 UNK        -0.1968 
      2 C          36.0179  -46.2016  -48.9597 C.2       0 UNK         0.4852 
      3 O          36.6767  -46.6454  -49.9009 O.2       0 UNK        -0.5359 
      4 N          34.8520  -45.5606  -49.1231 N.am      1 UNK        -0.4300 
      5 CA         34.1996  -45.3249  -50.4185 C.3       1 UNK         0.0863 
      6 C6         33.1930  -44.1441  -50.3298 C.3       11 UNK        -0.0953 
      7 S7         33.0744  -43.1919  -51.8814 S.3       11 UNK        -0.2369 
      8 C8         31.4946  -43.8035  -52.5459 C.3       11 UNK         0.0226 
      9 C9         31.2536  -43.3243  -53.9694 C.ar      11 UNK        -0.0699 
     10 C10        32.0877  -43.7543  -55.0087 C.ar      11 UNK        -0.0804 
     11 C11        31.8701  -43.3151  -56.3187 C.ar      11 UNK        -0.0871 
     12 C12        30.8137  -42.4425  -56.5827 C.ar      11 UNK        -0.1008 
     13 C13        29.9428  -42.0494  -55.5642 C.ar      11 UNK        -0.0735 
     14 C14        30.1762  -42.4794  -54.2551 C.ar      11 UNK        -0.0945 
     15 C15        28.7298  -41.1929  -55.8936 C.3       11 UNK         0.0169 
     16 S16        27.2773  -42.2238  -56.2838 S.3       11 UNK        -0.2669 
     17 C17        27.8529  -43.1023  -57.7793 C.3       11 UNK        -0.0850 
     18 CA         26.7254  -43.8708  -58.5062 C.3       10 UNK         0.0855 
     19 C          27.2463  -44.4516  -59.8462 C.2       10 UNK         0.5543 
     20 N          27.8822  -45.6168  -59.8419 N.am      10 UNK        -0.7343 
     21 O          27.0693  -43.8401  -60.8967 O.2       10 UNK        -0.5027 
     22 N          26.1486  -44.9186  -57.6536 N.am      10 UNK        -0.4495 
     23 C          24.8423  -45.1919  -57.5707 C.2       10 UNK         0.4903 
     24 O          23.9624  -44.5521  -58.1506 O.2       10 UNK        -0.4860 
     25 CA         24.4709  -46.3986  -56.6924 C.3       9 UNK         0.0227 
     26 CB         22.9491  -46.6388  -56.5901 C.3       9 UNK        -0.1964 
     27 N          25.1724  -47.6153  -57.1155 N.am      9 UNK        -0.4231 
     28 C          25.0802  -48.2461  -58.2987 C.2       9 UNK         0.5014 
     29 O          24.3297  -47.8887  -59.2080 O.2       9 UNK        -0.5270 
     30 CA         25.9711  -49.4846  -58.5318 C.3       8 UNK         0.0284 
     31 CB         26.9527  -49.2348  -59.6895 C.3       8 UNK        -0.1977 
     32 N          26.7322  -49.9069  -57.3535 N.am      8 UNK        -0.4342 
     33 C          26.2193  -50.5209  -56.2791 C.2       8 UNK         0.5039 
     34 O          25.0459  -50.8836  -56.1919 O.2       8 UNK        -0.5547 
     35 CA         27.1628  -50.7175  -55.0789 C.3       7 UNK         0.0281 
     36 CB         27.9295  -52.0420  -55.2068 C.3       7 UNK        -0.1963 
     37 N          28.1092  -49.6098  -54.8931 N.am      7 UNK        -0.4444 
     38 C          27.7577  -48.3411  -54.6304 C.2       7 UNK         0.5104 
     39 O          26.5925  -47.9579  -54.5380 O.2       7 UNK        -0.5100 
     40 CA         28.8944  -47.3215  -54.4741 C.3       6 UNK         0.0396 
     41 CB         29.5278  -47.4352  -53.0782 C.3       6 UNK        -0.1801 
     42 N          29.9207  -47.4990  -55.4992 N.am      6 UNK        -0.4747 
     43 C          29.7829  -47.1499  -56.7872 C.2       6 UNK         0.5012 
     44 O          28.7727  -46.6150  -57.2531 O.2       6 UNK        -0.5003 
     45 CA         30.9621  -47.5202  -57.7151 C.3       5 UNK         0.0782 
     46 C46        32.1377  -46.5186  -57.5806 C.3       11 UNK        -0.0868 
     47 S47        31.8963  -44.9833  -58.5278 S.3       11 UNK        -0.2515 
     48 C48        32.7569  -43.7782  -57.4641 C.3       11 UNK         0.0199 
     49 N          31.4404  -48.8878  -57.4840 N.am      5 UNK        -0.4607 
     50 C          30.7153  -50.0099  -57.5848 C.2       4 UNK         0.5031 
     51 O          29.5390  -50.0386  -57.9397 O.2       4 UNK        -0.5119 
     52 CA         31.4103  -51.3186  -57.1622 C.3       4 UNK         0.0263 
     53 CB         32.1183  -51.9597  -58.3660 C.3       4 UNK        -0.1967 
     54 N          32.3665  -51.1570  -56.0581 N.am      4 UNK        -0.4237 
     55 C          32.0783  -50.6295  -54.8595 C.2       3 UNK         0.4908 
     56 O          30.9509  -50.2367  -54.5382 O.2       3 UNK        -0.5102 
     57 CA         33.2503  -50.4582  -53.8822 C.3       3 UNK         0.0241 
     58 CB         34.3470  -49.5537  -54.4894 C.3       3 UNK        -0.1971 
     59 N          32.7166  -49.8555  -52.6655 N.am      3 UNK        -0.4139 
     60 C          33.3531  -49.6520  -51.5094 C.2       2 UNK         0.5016 
     61 O          34.4962  -50.0439  -51.2629 O.2       2 UNK        -0.5319 
     62 CA         32.5757  -48.8504  -50.4490 C.3       2 UNK         0.0286 
     63 CB         32.3892  -49.6720  -49.1623 C.3       2 UNK        -0.1963 
     64 N          33.2279  -47.5787  -50.1204 N.am      2 UNK        -0.4790 
     65 C          33.5348  -46.6005  -50.9897 C.2       1 UNK         0.5024 
     66 O          33.2993  -46.6662  -52.1964 O.2       1 UNK        -0.4888 
     67 H67        36.6340  -47.4315  -47.3007 H         1 UNK         0.0892 
     68 H68        37.5025  -45.8995  -47.4272 H         1 UNK         0.0892 
     69 H69        35.8523  -45.9294  -46.8039 H         1 UNK         0.0892 
     70 H70        34.3619  -45.2091  -48.3122 H         1 UNK         0.3107 
     71 H71        34.9891  -45.0462  -51.1206 H         1 UNK         0.0773 
     72 H72        32.2040  -44.4739  -50.0043 H         1 UNK         0.0680 
     73 H73        33.5222  -43.4294  -49.5737 H         1 UNK         0.0680 
     74 H74        31.4915  -44.8903  -52.5385 H         1 UNK         0.0650 
     75 H75        30.6860  -43.4878  -51.8849 H         1 UNK         0.0650 
     76 H76        32.9062  -44.4270  -54.7905 H         1 UNK         0.1397 
     77 H77        30.6417  -42.1082  -57.5967 H         1 UNK         0.1363 
     78 H78        29.5064  -42.1706  -53.4641 H         1 UNK         0.1355 
     79 H79        28.4895  -40.5459  -55.0486 H         1 UNK         0.0707 
     80 H80        28.9454  -40.5312  -56.7340 H         1 UNK         0.0707 
     81 H81        28.3048  -42.3702  -58.4515 H         1 UNK         0.1034 
     82 H82        28.6458  -43.7970  -57.4952 H         1 UNK         0.1034 
     83 H83        25.9537  -43.1405  -58.7582 H         1 UNK         0.0482 
     84 H84        28.2194  -45.9969  -60.7110 H         1 UNK         0.3460 
     85 H85        28.0905  -46.0794  -58.9637 H         1 UNK         0.3460 
     86 H86        26.8144  -45.5201  -57.1853 H         1 UNK         0.2989 
     87 H87        24.8311  -46.1698  -55.6885 H         1 UNK         0.0559 
     88 H88        22.4453  -45.7646  -56.1761 H         1 UNK         0.0848 
     89 H89        22.7247  -47.4819  -55.9368 H         1 UNK         0.0848 
     90 H90        22.4998  -46.8396  -57.5631 H         1 UNK         0.0848 
     91 H91        25.8105  -47.9930  -56.4231 H         1 UNK         0.3144 
     92 H92        25.3085  -50.3031  -58.8202 H         1 UNK         0.0727 
     93 H93        27.6731  -48.4549  -59.4416 H         1 UNK         0.0790 
     94 H94        26.4295  -48.9226  -60.5943 H         1 UNK         0.0790 
     95 H95        27.5117  -50.1378  -59.9356 H         1 UNK         0.0790 
     96 H96        27.7342  -49.7290  -57.3778 H         1 UNK         0.3215 
     97 H97        26.5455  -50.7675  -54.1794 H         1 UNK         0.0863 
     98 H98        28.6333  -52.1812  -54.3858 H         1 UNK         0.0808 
     99 H99        28.4843  -52.0930  -56.1425 H         1 UNK         0.0808 
    100 H100       27.2421  -52.8887  -55.1943 H         1 UNK         0.0808 
    101 H101       29.0997  -49.8380  -54.9211 H         1 UNK         0.3118 
    102 H102       28.4776  -46.3172  -54.5798 H         1 UNK         0.0546 
    103 H103       29.8315  -48.4562  -52.8489 H         1 UNK         0.0828 
    104 H104       28.8198  -47.1288  -52.3072 H         1 UNK         0.0828 
    105 H105       30.4067  -46.8005  -52.9855 H         1 UNK         0.0828 
    106 H106       30.7485  -48.0092  -55.2250 H         1 UNK         0.3005 
    107 H107       30.5870  -47.4913  -58.7407 H         1 UNK         0.1257 
    108 H108       32.3440  -46.2915  -56.5329 H         1 UNK         0.0775 
    109 H109       33.0559  -46.9634  -57.9682 H         1 UNK         0.0775 
    110 H110       33.6895  -44.2064  -57.0932 H         1 UNK         0.0840 
    111 H111       33.0397  -42.9153  -58.0690 H         1 UNK         0.0840 
    112 H112       32.4009  -48.9788  -57.1897 H         1 UNK         0.2987 
    113 H113       30.6378  -52.0078  -56.8211 H         1 UNK         0.0785 
    114 H114       31.4221  -52.1100  -59.1926 H         1 UNK         0.0798 
    115 H115       32.5295  -52.9367  -58.1115 H         1 UNK         0.0798 
    116 H116       32.9337  -51.3369  -58.7361 H         1 UNK         0.0798 
    117 H117       33.3132  -51.4601  -56.2372 H         1 UNK         0.3079 
    118 H118       33.6575  -51.4430  -53.6457 H         1 UNK         0.0794 
    119 H119       35.1821  -49.4191  -53.8021 H         1 UNK         0.0786 
    120 H120       33.9600  -48.5628  -54.7318 H         1 UNK         0.0786 
    121 H121       34.7632  -49.9786  -55.4030 H         1 UNK         0.0786 
    122 H122       31.7560  -49.5548  -52.7750 H         1 UNK         0.3032 
    123 H123       31.5851  -48.6127  -50.8424 H         1 UNK         0.1094 
    124 H124       33.3443  -49.9022  -48.6882 H         1 UNK         0.0794 
    125 H125       31.7722  -49.1417  -48.4365 H         1 UNK         0.0794 
    126 H126       31.8942  -50.6208  -49.3742 H         1 UNK         0.0794 
    127 H127       33.4893  -47.4459  -49.1549 H         1 UNK         0.3016 
@<TRIPOS>BOND
     1    1    2 1    
     2    1   67 1    
     3    1   68 1    
     4    1   69 1    
     5    2    3 2    
     6    2    4 am   BACKBONE|DICT|INTERRES
     7    4    5 1    
     8    4   70 1    
     9    5    6 1    
    10    5   65 1    
    11    5   71 1    
    12    6    7 1    
    13    6   72 1    
    14    6   73 1    
    15    7    8 1    
    16    8    9 1    
    17    8   74 1    
    18    8   75 1    
    19    9   10 ar   
    20    9   14 ar   
    21   10   11 ar   
    22   10   76 1    
    23   11   12 ar   
    24   11   48 1    
    25   12   13 ar   
    26   12   77 1    
    27   13   14 ar   
    28   13   15 1    
    29   14   78 1    
    30   15   16 1    
    31   15   79 1    
    32   15   80 1    
    33   16   17 1    
    34   17   18 1    
    35   17   81 1    
    36   17   82 1    
    37   18   19 1    
    38   18   22 1    
    39   18   83 1    
    40   19   20 am   BACKBONE|DICT|INTERRES
    41   19   21 2    
    42   20   84 1    
    43   20   85 1    
    44   22   23 am   BACKBONE|DICT|INTERRES
    45   22   86 1    
    46   23   24 2    
    47   23   25 1    
    48   25   26 1    
    49   25   27 1    
    50   25   87 1    
    51   26   88 1    
    52   26   89 1    
    53   26   90 1    
    54   27   28 am   BACKBONE|DICT|INTERRES
    55   27   91 1    
    56   28   29 2    
    57   28   30 1    
    58   30   31 1    
    59   30   32 1    
    60   30   92 1    
    61   31   93 1    
    62   31   94 1    
    63   31   95 1    
    64   32   33 am   BACKBONE|DICT|INTERRES
    65   32   96 1    
    66   33   34 2    
    67   33   35 1    
    68   35   36 1    
    69   35   37 1    
    70   35   97 1    
    71   36   98 1    
    72   36   99 1    
    73   36  100 1    
    74   37   38 am   BACKBONE|DICT|INTERRES
    75   37  101 1    
    76   38   39 2    
    77   38   40 1    
    78   40   41 1    
    79   40   42 1    
    80   40  102 1    
    81   41  103 1    
    82   41  104 1    
    83   41  105 1    
    84   42   43 am   BACKBONE|DICT|INTERRES
    85   42  106 1    
    86   43   44 2    
    87   43   45 1    
    88   45   46 1    
    89   45   49 1    
    90   45  107 1    
    91   46   47 1    
    92   46  108 1    
    93   46  109 1    
    94   47   48 1    
    95   48  110 1    
    96   48  111 1    
    97   49   50 am   BACKBONE|DICT|INTERRES
    98   49  112 1    
    99   50   51 2    
   100   50   52 1    
   101   52   53 1    
   102   52   54 1    
   103   52  113 1    
   104   53  114 1    
   105   53  115 1    
   106   53  116 1    
   107   54   55 am   BACKBONE|DICT|INTERRES
   108   54  117 1    
   109   55   56 2    
   110   55   57 1    
   111   57   58 1    
   112   57   59 1    
   113   57  118 1    
   114   58  119 1    
   115   58  120 1    
   116   58  121 1    
   117   59   60 am   BACKBONE|DICT|INTERRES
   118   59  122 1    
   119   60   61 2    
   120   60   62 1    
   121   62   63 1    
   122   62   64 1    
   123   62  123 1    
   124   63  124 1    
   125   63  125 1    
   126   63  126 1    
   127   64   65 am   BACKBONE|DICT|INTERRES
   128   64  127 1    
   129   65   66 2    
@<TRIPOS>SUBSTRUCTURE
     1 UNK         1 GROUP             0       ****    0 ROOT    
