@<TRIPOS>MOLECULE
3R134
127   129    1
SMALL
USER_CHARGES


@<TRIPOS>ATOM
      1 CA         33.2571  -48.1906  -58.6945 C.3       0 UNK        -0.1968 
      2 C          33.2106  -47.8250  -57.2191 C.2       0 UNK         0.4852 
      3 O          32.5883  -48.5420  -56.4364 O.2       0 UNK        -0.5359 
      4 N          33.8761  -46.7258  -56.8348 N.am      1 UNK        -0.4300 
      5 CA         33.9323  -46.1538  -55.4784 C.3       1 UNK         0.0863 
      6 C6         34.9024  -44.9462  -55.4103 C.3       11 UNK        -0.0953 
      7 S7         34.5392  -43.6604  -56.6537 S.3       11 UNK        -0.2369 
      8 C8         34.1203  -42.2302  -55.6100 C.3       11 UNK         0.0226 
      9 C9         32.7944  -42.4210  -54.8900 C.ar      11 UNK        -0.0699 
     10 C10        32.7620  -42.6592  -53.5125 C.ar      11 UNK        -0.0804 
     11 C11        31.5419  -42.8161  -52.8481 C.ar      11 UNK        -0.0871 
     12 C12        30.3491  -42.7436  -53.5758 C.ar      11 UNK        -0.1008 
     13 C13        30.3704  -42.5125  -54.9546 C.ar      11 UNK        -0.0735 
     14 C14        31.5958  -42.3421  -55.6039 C.ar      11 UNK        -0.0945 
     15 C15        29.0719  -42.4482  -55.7436 C.3       11 UNK         0.0169 
     16 S16        28.8741  -43.9310  -56.7748 S.3       11 UNK        -0.2669 
     17 C17        27.0971  -43.8812  -57.1857 C.3       11 UNK        -0.0850 
     18 CA         26.2643  -44.8363  -56.2713 C.3       10 UNK         0.0855 
     19 C          25.3883  -44.1036  -55.2074 C.2       10 UNK         0.5543 
     20 N          24.2846  -44.6878  -54.7554 N.am      10 UNK        -0.7343 
     21 O          25.7098  -43.0020  -54.7699 O.2       10 UNK        -0.5027 
     22 N          25.5596  -45.8852  -57.0269 N.am      10 UNK        -0.4495 
     23 C          24.5543  -45.7098  -57.8937 C.2       10 UNK         0.4903 
     24 O          24.1272  -44.6064  -58.2378 O.2       10 UNK        -0.4860 
     25 CA         23.9189  -47.0006  -58.4486 C.3       9 UNK         0.0227 
     26 CB         22.8073  -46.7371  -59.4882 C.3       9 UNK        -0.1964 
     27 N          24.9204  -47.9461  -58.9600 N.am      9 UNK        -0.4231 
     28 C          25.7380  -47.7735  -60.0087 C.2       9 UNK         0.5014 
     29 O          25.7508  -46.7725  -60.7272 O.2       9 UNK        -0.5270 
     30 CA         26.7652  -48.8893  -60.2395 C.3       8 UNK         0.0284 
     31 CB         27.3188  -48.9055  -61.6770 C.3       8 UNK        -0.1977 
     32 N          27.8544  -48.6383  -59.3056 N.am      8 UNK        -0.4342 
     33 C          28.2419  -49.4475  -58.3148 C.2       8 UNK         0.5039 
     34 O          27.8477  -50.6076  -58.1788 O.2       8 UNK        -0.5547 
     35 CA         29.2153  -48.8500  -57.2766 C.3       7 UNK         0.0281 
     36 CB         29.5513  -47.3620  -57.5223 C.3       7 UNK        -0.1963 
     37 N          28.7408  -49.0056  -55.8961 N.am      7 UNK        -0.4444 
     38 C          27.5327  -48.6831  -55.4038 C.2       7 UNK         0.5104 
     39 O          26.5782  -48.2933  -56.0782 O.2       7 UNK        -0.5100 
     40 CA         27.3808  -48.7614  -53.8791 C.3       6 UNK         0.0396 
     41 CB         27.0657  -50.1970  -53.4310 C.3       6 UNK        -0.1801 
     42 N          28.5892  -48.2794  -53.2070 N.am      6 UNK        -0.4747 
     43 C          28.8807  -46.9840  -53.0031 C.2       6 UNK         0.5012 
     44 O          28.1135  -46.0746  -53.3207 O.2       6 UNK        -0.5003 
     45 CA         30.2485  -46.6239  -52.3652 C.3       5 UNK         0.0782 
     46 C46        30.1203  -45.4853  -51.3144 C.3       11 UNK        -0.0868 
     47 S47        31.7417  -44.7731  -50.8759 S.3       11 UNK        -0.2515 
     48 C48        31.5181  -43.0256  -51.3397 C.3       11 UNK         0.0199 
     49 N          30.9910  -47.7927  -51.8643 N.am      5 UNK        -0.4607 
     50 C          30.6274  -48.6038  -50.8583 C.2       4 UNK         0.5031 
     51 O          29.6369  -48.4103  -50.1520 O.2       4 UNK        -0.5119 
     52 CA         31.4823  -49.8684  -50.6265 C.3       4 UNK         0.0263 
     53 CB         30.6733  -51.0010  -49.9592 C.3       4 UNK        -0.1967 
     54 N          32.1534  -50.3869  -51.8268 N.am      4 UNK        -0.4237 
     55 C          31.6125  -50.7090  -53.0119 C.2       3 UNK         0.4908 
     56 O          30.4280  -50.5303  -53.3008 O.2       3 UNK        -0.5102 
     57 CA         32.5821  -51.2912  -54.0574 C.3       3 UNK         0.0241 
     58 CB         31.8839  -51.6555  -55.3809 C.3       3 UNK        -0.1971 
     59 N          33.6850  -50.3630  -54.3238 N.am      3 UNK        -0.4139 
     60 C          34.7659  -50.2236  -53.5400 C.2       2 UNK         0.5016 
     61 O          34.9520  -50.9007  -52.5274 O.2       2 UNK        -0.5319 
     62 CA         35.7965  -49.1389  -53.8993 C.3       2 UNK         0.0286 
     63 CB         37.0175  -49.7691  -54.5885 C.3       2 UNK        -0.1963 
     64 N          35.2757  -48.0632  -54.7439 N.am      2 UNK        -0.4790 
     65 C          34.3243  -47.1830  -54.3965 C.2       1 UNK         0.5024 
     66 O          33.7522  -47.1805  -53.3054 O.2       1 UNK        -0.4888 
     67 H67        33.7857  -47.4422  -59.2845 H         1 UNK         0.0892 
     68 H68        33.7616  -49.1473  -58.8259 H         1 UNK         0.0892 
     69 H69        32.2466  -48.2827  -59.0906 H         1 UNK         0.0892 
     70 H70        34.3562  -46.1783  -57.5352 H         1 UNK         0.3107 
     71 H71        32.9263  -45.8014  -55.2401 H         1 UNK         0.0773 
     72 H72        34.8851  -44.5015  -54.4138 H         1 UNK         0.0680 
     73 H73        35.9317  -45.2718  -55.5734 H         1 UNK         0.0680 
     74 H74        34.0605  -41.3420  -56.2405 H         1 UNK         0.0650 
     75 H75        34.9299  -42.0471  -54.9018 H         1 UNK         0.0650 
     76 H76        33.6859  -42.7141  -52.9531 H         1 UNK         0.1397 
     77 H77        29.4002  -42.8615  -53.0710 H         1 UNK         0.1363 
     78 H78        31.6167  -42.1634  -56.6705 H         1 UNK         0.1355 
     79 H79        28.2243  -42.3573  -55.0645 H         1 UNK         0.0707 
     80 H80        29.0626  -41.5596  -56.3763 H         1 UNK         0.0707 
     81 H81        26.7329  -42.8527  -57.1575 H         1 UNK         0.1034 
     82 H82        27.0113  -44.1766  -58.2324 H         1 UNK         0.1034 
     83 H83        26.9609  -45.4093  -55.6596 H         1 UNK         0.0482 
     84 H84        23.7233  -44.2153  -54.0647 H         1 UNK         0.3460 
     85 H85        24.0138  -45.5971  -55.0928 H         1 UNK         0.3460 
     86 H86        25.8400  -46.8356  -56.7865 H         1 UNK         0.2989 
     87 H87        23.4500  -47.4939  -57.5959 H         1 UNK         0.0559 
     88 H88        22.0053  -46.1377  -59.0557 H         1 UNK         0.0848 
     89 H89        22.3618  -47.6679  -59.8387 H         1 UNK         0.0848 
     90 H90        23.1804  -46.1950  -60.3576 H         1 UNK         0.0848 
     91 H91        25.0534  -48.7778  -58.3993 H         1 UNK         0.3144 
     92 H92        26.2834  -49.8495  -60.0422 H         1 UNK         0.0727 
     93 H93        27.8305  -47.9758  -61.9295 H         1 UNK         0.0790 
     94 H94        26.5153  -49.0445  -62.4014 H         1 UNK         0.0790 
     95 H95        28.0266  -49.7228  -61.8160 H         1 UNK         0.0790 
     96 H96        28.2136  -47.6935  -59.3074 H         1 UNK         0.3215 
     97 H97        30.1401  -49.4217  -57.3596 H         1 UNK         0.0863 
     98 H98        30.2329  -46.9834  -56.7601 H         1 UNK         0.0808 
     99 H99        28.6574  -46.7387  -57.4930 H         1 UNK         0.0808 
    100 H100       30.0404  -47.2101  -58.4850 H         1 UNK         0.0808 
    101 H101       29.4228  -49.3607  -55.2388 H         1 UNK         0.3118 
    102 H102       26.5388  -48.1289  -53.5893 H         1 UNK         0.0546 
    103 H103       27.8436  -50.8999  -53.7304 H         1 UNK         0.0828 
    104 H104       26.1302  -50.5430  -53.8723 H         1 UNK         0.0828 
    105 H105       26.9571  -50.2594  -52.3482 H         1 UNK         0.0828 
    106 H106       29.2799  -48.9837  -52.9619 H         1 UNK         0.3005 
    107 H107       30.8397  -46.2324  -53.1955 H         1 UNK         0.1257 
    108 H108       29.6402  -45.8417  -50.4028 H         1 UNK         0.0775 
    109 H109       29.4762  -44.6858  -51.6786 H         1 UNK         0.0775 
    110 H110       30.5880  -42.6472  -50.9124 H         1 UNK         0.0840 
    111 H111       32.3156  -42.4400  -50.8798 H         1 UNK         0.0840 
    112 H112       31.8449  -48.0037  -52.3663 H         1 UNK         0.2987 
    113 H113       32.2742  -49.5725  -49.9369 H         1 UNK         0.0785 
    114 H114       30.2726  -50.6863  -48.9947 H         1 UNK         0.0798 
    115 H115       31.2938  -51.8783  -49.7768 H         1 UNK         0.0798 
    116 H116       29.8301  -51.3094  -50.5786 H         1 UNK         0.0798 
    117 H117       33.1535  -50.5453  -51.7368 H         1 UNK         0.3079 
    118 H118       32.9878  -52.2153  -53.6400 H         1 UNK         0.0794 
    119 H119       32.5880  -52.0745  -56.0997 H         1 UNK         0.0786 
    120 H120       31.4115  -50.7891  -55.8414 H         1 UNK         0.0786 
    121 H121       31.1041  -52.4005  -55.2176 H         1 UNK         0.0786 
    122 H122       33.5466  -49.7163  -55.0954 H         1 UNK         0.3032 
    123 H123       36.1254  -48.6903  -52.9592 H         1 UNK         0.1094 
    124 H124       36.7538  -50.2158  -55.5481 H         1 UNK         0.0794 
    125 H125       37.8006  -49.0311  -54.7636 H         1 UNK         0.0794 
    126 H126       37.4514  -50.5570  -53.9709 H         1 UNK         0.0794 
    127 H127       35.6642  -47.9916  -55.6734 H         1 UNK         0.3016 
@<TRIPOS>BOND
     1    1    2 1    
     2    1   67 1    
     3    1   68 1    
     4    1   69 1    
     5    2    3 2    
     6    2    4 am   BACKBONE|DICT|INTERRES
     7    4    5 1    
     8    4   70 1    
     9    5    6 1    
    10    5   65 1    
    11    5   71 1    
    12    6    7 1    
    13    6   72 1    
    14    6   73 1    
    15    7    8 1    
    16    8    9 1    
    17    8   74 1    
    18    8   75 1    
    19    9   10 ar   
    20    9   14 ar   
    21   10   11 ar   
    22   10   76 1    
    23   11   12 ar   
    24   11   48 1    
    25   12   13 ar   
    26   12   77 1    
    27   13   14 ar   
    28   13   15 1    
    29   14   78 1    
    30   15   16 1    
    31   15   79 1    
    32   15   80 1    
    33   16   17 1    
    34   17   18 1    
    35   17   81 1    
    36   17   82 1    
    37   18   19 1    
    38   18   22 1    
    39   18   83 1    
    40   19   20 am   BACKBONE|DICT|INTERRES
    41   19   21 2    
    42   20   84 1    
    43   20   85 1    
    44   22   23 am   BACKBONE|DICT|INTERRES
    45   22   86 1    
    46   23   24 2    
    47   23   25 1    
    48   25   26 1    
    49   25   27 1    
    50   25   87 1    
    51   26   88 1    
    52   26   89 1    
    53   26   90 1    
    54   27   28 am   BACKBONE|DICT|INTERRES
    55   27   91 1    
    56   28   29 2    
    57   28   30 1    
    58   30   31 1    
    59   30   32 1    
    60   30   92 1    
    61   31   93 1    
    62   31   94 1    
    63   31   95 1    
    64   32   33 am   BACKBONE|DICT|INTERRES
    65   32   96 1    
    66   33   34 2    
    67   33   35 1    
    68   35   36 1    
    69   35   37 1    
    70   35   97 1    
    71   36   98 1    
    72   36   99 1    
    73   36  100 1    
    74   37   38 am   BACKBONE|DICT|INTERRES
    75   37  101 1    
    76   38   39 2    
    77   38   40 1    
    78   40   41 1    
    79   40   42 1    
    80   40  102 1    
    81   41  103 1    
    82   41  104 1    
    83   41  105 1    
    84   42   43 am   BACKBONE|DICT|INTERRES
    85   42  106 1    
    86   43   44 2    
    87   43   45 1    
    88   45   46 1    
    89   45   49 1    
    90   45  107 1    
    91   46   47 1    
    92   46  108 1    
    93   46  109 1    
    94   47   48 1    
    95   48  110 1    
    96   48  111 1    
    97   49   50 am   BACKBONE|DICT|INTERRES
    98   49  112 1    
    99   50   51 2    
   100   50   52 1    
   101   52   53 1    
   102   52   54 1    
   103   52  113 1    
   104   53  114 1    
   105   53  115 1    
   106   53  116 1    
   107   54   55 am   BACKBONE|DICT|INTERRES
   108   54  117 1    
   109   55   56 2    
   110   55   57 1    
   111   57   58 1    
   112   57   59 1    
   113   57  118 1    
   114   58  119 1    
   115   58  120 1    
   116   58  121 1    
   117   59   60 am   BACKBONE|DICT|INTERRES
   118   59  122 1    
   119   60   61 2    
   120   60   62 1    
   121   62   63 1    
   122   62   64 1    
   123   62  123 1    
   124   63  124 1    
   125   63  125 1    
   126   63  126 1    
   127   64   65 am   BACKBONE|DICT|INTERRES
   128   64  127 1    
   129   65   66 2    
@<TRIPOS>SUBSTRUCTURE
     1 UNK         1 GROUP             0       ****    0 ROOT    
