@<TRIPOS>MOLECULE
3R134
127   129    1
SMALL
USER_CHARGES


@<TRIPOS>ATOM
      1 CA         29.5027  -43.7777  -50.8241 C.3       0 UNK        -0.1968 
      2 C          30.6164  -44.5349  -50.1137 C.2       0 UNK         0.4852 
      3 O          30.4925  -44.8316  -48.9242 O.2       0 UNK        -0.5359 
      4 N          31.7012  -44.8403  -50.8358 N.am      1 UNK        -0.4300 
      5 CA         32.8348  -45.6453  -50.3731 C.3       1 UNK         0.0863 
      6 C6         34.1612  -45.1637  -51.0249 C.3       11 UNK        -0.0953 
      7 S7         34.2004  -45.3600  -52.8393 S.3       11 UNK        -0.2369 
      8 C8         33.9571  -43.6553  -53.4331 C.3       11 UNK         0.0226 
      9 C9         33.0892  -43.6433  -54.6825 C.ar      11 UNK        -0.0699 
     10 C10        33.5859  -44.1452  -55.8875 C.ar      11 UNK        -0.0804 
     11 C11        32.7788  -44.1822  -57.0273 C.ar      11 UNK        -0.0871 
     12 C12        31.4658  -43.7083  -56.9584 C.ar      11 UNK        -0.1008 
     13 C13        30.9515  -43.1968  -55.7574 C.ar      11 UNK        -0.0735 
     14 C14        31.7791  -43.1581  -54.6301 C.ar      11 UNK        -0.0945 
     15 C15        29.5153  -42.6897  -55.6072 C.3       11 UNK         0.0169 
     16 S16        28.4038  -43.0230  -57.0169 S.3       11 UNK        -0.2669 
     17 C17        26.7737  -42.9076  -56.2018 C.3       11 UNK        -0.0850 
     18 CA         26.2521  -44.3031  -55.7410 C.3       10 UNK         0.0855 
     19 C          24.9493  -44.2370  -54.8844 C.2       10 UNK         0.5543 
     20 N          24.8412  -43.2826  -53.9683 N.am      10 UNK        -0.7343 
     21 O          24.0465  -45.0639  -55.0010 O.2       10 UNK        -0.5027 
     22 N          26.1919  -45.2738  -56.8491 N.am      10 UNK        -0.4495 
     23 C          25.3853  -45.1991  -57.9160 C.2       10 UNK         0.4903 
     24 O          24.5524  -44.3084  -58.0918 O.2       10 UNK        -0.4860 
     25 CA         25.5406  -46.2779  -58.9961 C.3       9 UNK         0.0227 
     26 CB         26.4779  -45.7732  -60.1069 C.3       9 UNK        -0.1964 
     27 N          26.0631  -47.5449  -58.4743 N.am      9 UNK        -0.4231 
     28 C          25.3346  -48.6610  -58.3390 C.2       9 UNK         0.5014 
     29 O          24.1159  -48.7126  -58.5143 O.2       9 UNK        -0.5270 
     30 CA         26.0923  -49.9577  -58.0149 C.3       8 UNK         0.0284 
     31 CB         26.8867  -50.4367  -59.2420 C.3       8 UNK        -0.1977 
     32 N          26.9861  -49.8501  -56.8615 N.am      8 UNK        -0.4342 
     33 C          26.5779  -49.8855  -55.5857 C.2       8 UNK         0.5039 
     34 O          25.3952  -49.9339  -55.2448 O.2       8 UNK        -0.5547 
     35 CA         27.6725  -49.8968  -54.5035 C.3       7 UNK         0.0281 
     36 CB         28.3278  -51.2835  -54.3934 C.3       7 UNK        -0.1963 
     37 N          28.7010  -48.8848  -54.7370 N.am      7 UNK        -0.4444 
     38 C          28.4997  -47.5678  -54.6046 C.2       7 UNK         0.5104 
     39 O          27.4500  -47.0720  -54.1982 O.2       7 UNK        -0.5100 
     40 CA         29.6583  -46.6461  -55.0165 C.3       6 UNK         0.0396 
     41 CB         30.6342  -46.4625  -53.8489 C.3       6 UNK        -0.1801 
     42 N          30.3792  -47.1381  -56.1917 N.am      6 UNK        -0.4747 
     43 C          29.8499  -47.2202  -57.4200 C.2       6 UNK         0.5012 
     44 O          28.6994  -46.8752  -57.6910 O.2       6 UNK        -0.5003 
     45 CA         30.7174  -47.8669  -58.5171 C.3       5 UNK         0.0782 
     46 C46        31.6396  -46.8407  -59.2275 C.3       11 UNK        -0.0868 
     47 S47        33.2414  -46.5448  -58.3932 S.3       11 UNK        -0.2515 
     48 C48        33.3377  -44.7286  -58.3311 C.3       11 UNK         0.0199 
     49 N          31.4447  -49.0438  -58.0301 N.am      5 UNK        -0.4607 
     50 C          30.8721  -50.1718  -57.5910 C.2       4 UNK         0.5031 
     51 O          29.6595  -50.3722  -57.6106 O.2       4 UNK        -0.5119 
     52 CA         31.8018  -51.2312  -56.9764 C.3       4 UNK         0.0263 
     53 CB         32.3892  -52.1349  -58.0716 C.3       4 UNK        -0.1967 
     54 N          32.8865  -50.6521  -56.1758 N.am      4 UNK        -0.4237 
     55 C          32.7031  -49.9093  -55.0751 C.2       3 UNK         0.4908 
     56 O          31.5928  -49.6313  -54.6174 O.2       3 UNK        -0.5102 
     57 CA         33.9752  -49.3295  -54.4324 C.3       3 UNK         0.0241 
     58 CB         34.4015  -48.0514  -55.1731 C.3       3 UNK        -0.1971 
     59 N          33.8171  -49.0251  -53.0066 N.am      3 UNK        -0.4139 
     60 C          33.6361  -49.9386  -52.0412 C.2       2 UNK         0.5016 
     61 O          33.5847  -51.1509  -52.2577 O.2       2 UNK        -0.5319 
     62 CA         33.5423  -49.4439  -50.5817 C.3       2 UNK         0.0286 
     63 CB         34.6618  -50.0636  -49.7261 C.3       2 UNK        -0.1963 
     64 N          33.6035  -47.9845  -50.4356 N.am      2 UNK        -0.4790 
     65 C          32.5553  -47.1593  -50.5588 C.2       1 UNK         0.5024 
     66 O          31.4174  -47.5612  -50.8103 O.2       1 UNK        -0.4888 
     67 H67        29.7548  -43.5527  -51.8600 H         1 UNK         0.0892 
     68 H68        28.5874  -44.3691  -50.8203 H         1 UNK         0.0892 
     69 H69        29.3028  -42.8365  -50.3125 H         1 UNK         0.0892 
     70 H70        31.7323  -44.5974  -51.8140 H         1 UNK         0.3107 
     71 H71        32.9419  -45.4965  -49.2965 H         1 UNK         0.0773 
     72 H72        34.3352  -44.1173  -50.7698 H         1 UNK         0.0680 
     73 H73        35.0169  -45.6950  -50.6061 H         1 UNK         0.0680 
     74 H74        34.9279  -43.2080  -53.6505 H         1 UNK         0.0650 
     75 H75        33.5021  -43.0435  -52.6530 H         1 UNK         0.0650 
     76 H76        34.5973  -44.5262  -55.9317 H         1 UNK         0.1397 
     77 H77        30.8530  -43.7496  -57.8468 H         1 UNK         0.1363 
     78 H78        31.3915  -42.7656  -53.7002 H         1 UNK         0.1355 
     79 H79        29.5352  -41.6142  -55.4261 H         1 UNK         0.0707 
     80 H80        29.0862  -43.1491  -54.7153 H         1 UNK         0.0707 
     81 H81        26.8573  -42.2140  -55.3646 H         1 UNK         0.1034 
     82 H82        26.0703  -42.4466  -56.8968 H         1 UNK         0.1034 
     83 H83        26.9981  -44.7041  -55.0577 H         1 UNK         0.0482 
     84 H84        24.0078  -43.2478  -53.4021 H         1 UNK         0.3460 
     85 H85        25.5729  -42.6074  -53.8174 H         1 UNK         0.3460 
     86 H86        26.8683  -46.0241  -56.8090 H         1 UNK         0.2989 
     87 H87        24.5561  -46.4310  -59.4431 H         1 UNK         0.0559 
     88 H88        27.4782  -45.5597  -59.7278 H         1 UNK         0.0848 
     89 H89        26.0967  -44.8519  -60.5496 H         1 UNK         0.0848 
     90 H90        26.5716  -46.5036  -60.9105 H         1 UNK         0.0848 
     91 H91        27.0570  -47.5623  -58.2576 H         1 UNK         0.3144 
     92 H92        25.3468  -50.7244  -57.7917 H         1 UNK         0.0727 
     93 H93        27.6783  -49.7369  -59.5127 H         1 UNK         0.0790 
     94 H94        26.2364  -50.5467  -60.1110 H         1 UNK         0.0790 
     95 H95        27.3493  -51.4068  -59.0591 H         1 UNK         0.0790 
     96 H96        27.9862  -49.8776  -57.0565 H         1 UNK         0.3215 
     97 H97        27.1949  -49.6753  -53.5464 H         1 UNK         0.0863 
     98 H98        29.0683  -51.3088  -53.5934 H         1 UNK         0.0808 
     99 H99        28.8271  -51.5732  -55.3180 H         1 UNK         0.0808 
    100 H100       27.5830  -52.0489  -54.1719 H         1 UNK         0.0808 
    101 H101       29.6274  -49.2057  -55.0018 H         1 UNK         0.3118 
    102 H102       29.2429  -45.6698  -55.2710 H         1 UNK         0.0546 
    103 H103       30.1430  -45.9620  -53.0151 H         1 UNK         0.0828 
    104 H104       31.4941  -45.8645  -54.1395 H         1 UNK         0.0828 
    105 H105       31.0084  -47.4149  -53.4756 H         1 UNK         0.0828 
    106 H106       31.3165  -47.4821  -56.0444 H         1 UNK         0.3005 
    107 H107       30.0105  -48.2290  -59.2677 H         1 UNK         0.1257 
    108 H108       31.1159  -45.8968  -59.3914 H         1 UNK         0.0775 
    109 H109       31.8741  -47.2128  -60.2260 H         1 UNK         0.0775 
    110 H110       34.3845  -44.4352  -58.4244 H         1 UNK         0.0840 
    111 H111       32.8295  -44.2888  -59.1905 H         1 UNK         0.0840 
    112 H112       32.4483  -48.9476  -57.9756 H         1 UNK         0.2987 
    113 H113       31.1963  -51.8507  -56.3114 H         1 UNK         0.0785 
    114 H114       31.5962  -52.5898  -58.6672 H         1 UNK         0.0798 
    115 H115       32.9758  -52.9479  -57.6433 H         1 UNK         0.0798 
    116 H116       33.0322  -51.5793  -58.7554 H         1 UNK         0.0798 
    117 H117       33.8287  -50.8277  -56.4948 H         1 UNK         0.3079 
    118 H118       34.7738  -50.0688  -54.5236 H         1 UNK         0.0794 
    119 H119       33.6226  -47.2879  -55.1454 H         1 UNK         0.0786 
    120 H120       34.6173  -48.2573  -56.2219 H         1 UNK         0.0786 
    121 H121       35.3062  -47.6230  -54.7414 H         1 UNK         0.0786 
    122 H122       33.8276  -48.0503  -52.7447 H         1 UNK         0.3032 
    123 H123       32.5852  -49.7996  -50.1924 H         1 UNK         0.1094 
    124 H124       35.6505  -49.7651  -50.0768 H         1 UNK         0.0794 
    125 H125       34.5719  -49.7688  -48.6803 H         1 UNK         0.0794 
    126 H126       34.6218  -51.1535  -49.7549 H         1 UNK         0.0794 
    127 H127       34.5130  -47.5908  -50.2392 H         1 UNK         0.3016 
@<TRIPOS>BOND
     1    1    2 1    
     2    1   67 1    
     3    1   68 1    
     4    1   69 1    
     5    2    3 2    
     6    2    4 am   BACKBONE|DICT|INTERRES
     7    4    5 1    
     8    4   70 1    
     9    5    6 1    
    10    5   65 1    
    11    5   71 1    
    12    6    7 1    
    13    6   72 1    
    14    6   73 1    
    15    7    8 1    
    16    8    9 1    
    17    8   74 1    
    18    8   75 1    
    19    9   10 ar   
    20    9   14 ar   
    21   10   11 ar   
    22   10   76 1    
    23   11   12 ar   
    24   11   48 1    
    25   12   13 ar   
    26   12   77 1    
    27   13   14 ar   
    28   13   15 1    
    29   14   78 1    
    30   15   16 1    
    31   15   79 1    
    32   15   80 1    
    33   16   17 1    
    34   17   18 1    
    35   17   81 1    
    36   17   82 1    
    37   18   19 1    
    38   18   22 1    
    39   18   83 1    
    40   19   20 am   BACKBONE|DICT|INTERRES
    41   19   21 2    
    42   20   84 1    
    43   20   85 1    
    44   22   23 am   BACKBONE|DICT|INTERRES
    45   22   86 1    
    46   23   24 2    
    47   23   25 1    
    48   25   26 1    
    49   25   27 1    
    50   25   87 1    
    51   26   88 1    
    52   26   89 1    
    53   26   90 1    
    54   27   28 am   BACKBONE|DICT|INTERRES
    55   27   91 1    
    56   28   29 2    
    57   28   30 1    
    58   30   31 1    
    59   30   32 1    
    60   30   92 1    
    61   31   93 1    
    62   31   94 1    
    63   31   95 1    
    64   32   33 am   BACKBONE|DICT|INTERRES
    65   32   96 1    
    66   33   34 2    
    67   33   35 1    
    68   35   36 1    
    69   35   37 1    
    70   35   97 1    
    71   36   98 1    
    72   36   99 1    
    73   36  100 1    
    74   37   38 am   BACKBONE|DICT|INTERRES
    75   37  101 1    
    76   38   39 2    
    77   38   40 1    
    78   40   41 1    
    79   40   42 1    
    80   40  102 1    
    81   41  103 1    
    82   41  104 1    
    83   41  105 1    
    84   42   43 am   BACKBONE|DICT|INTERRES
    85   42  106 1    
    86   43   44 2    
    87   43   45 1    
    88   45   46 1    
    89   45   49 1    
    90   45  107 1    
    91   46   47 1    
    92   46  108 1    
    93   46  109 1    
    94   47   48 1    
    95   48  110 1    
    96   48  111 1    
    97   49   50 am   BACKBONE|DICT|INTERRES
    98   49  112 1    
    99   50   51 2    
   100   50   52 1    
   101   52   53 1    
   102   52   54 1    
   103   52  113 1    
   104   53  114 1    
   105   53  115 1    
   106   53  116 1    
   107   54   55 am   BACKBONE|DICT|INTERRES
   108   54  117 1    
   109   55   56 2    
   110   55   57 1    
   111   57   58 1    
   112   57   59 1    
   113   57  118 1    
   114   58  119 1    
   115   58  120 1    
   116   58  121 1    
   117   59   60 am   BACKBONE|DICT|INTERRES
   118   59  122 1    
   119   60   61 2    
   120   60   62 1    
   121   62   63 1    
   122   62   64 1    
   123   62  123 1    
   124   63  124 1    
   125   63  125 1    
   126   63  126 1    
   127   64   65 am   BACKBONE|DICT|INTERRES
   128   64  127 1    
   129   65   66 2    
@<TRIPOS>SUBSTRUCTURE
     1 UNK         1 GROUP             0       ****    0 ROOT    
