@<TRIPOS>MOLECULE
3R134
127   129    1
SMALL
USER_CHARGES


@<TRIPOS>ATOM
      1 CA         39.0167  -47.7595  -57.0818 C.3       0 UNK        -0.1968 
      2 C          37.9406  -47.0628  -56.2617 C.2       0 UNK         0.4852 
      3 O          38.2056  -46.0069  -55.6856 O.2       0 UNK        -0.5359 
      4 N          36.7349  -47.6488  -56.2106 N.am      1 UNK        -0.4300 
      5 CA         35.5620  -47.1670  -55.4678 C.3       1 UNK         0.0863 
      6 C6         35.0062  -45.8224  -56.0204 C.3       11 UNK        -0.0953 
      7 S7         33.1855  -45.7179  -55.9323 S.3       11 UNK        -0.2369 
      8 C8         32.9677  -44.5174  -54.5841 C.3       11 UNK         0.0226 
      9 C9         31.5203  -44.0721  -54.4318 C.ar      11 UNK        -0.0699 
     10 C10        30.7936  -44.3994  -53.2830 C.ar      11 UNK        -0.0804 
     11 C11        29.4918  -43.9173  -53.1016 C.ar      11 UNK        -0.0871 
     12 C12        28.9159  -43.1089  -54.0879 C.ar      11 UNK        -0.1008 
     13 C13        29.6310  -42.7804  -55.2439 C.ar      11 UNK        -0.0735 
     14 C14        30.9297  -43.2695  -55.4112 C.ar      11 UNK        -0.0945 
     15 C15        29.0345  -41.8493  -56.2891 C.3       11 UNK         0.0169 
     16 S16        27.9526  -42.7332  -57.4544 S.3       11 UNK        -0.2669 
     17 C17        26.2995  -42.5118  -56.7042 C.3       11 UNK        -0.0850 
     18 CA         25.7241  -43.8078  -56.0633 C.3       10 UNK         0.0855 
     19 C          24.3729  -43.5637  -55.3270 C.2       10 UNK         0.5543 
     20 N          23.4407  -44.5089  -55.3254 N.am      10 UNK        -0.7343 
     21 O          24.1760  -42.5152  -54.7178 O.2       10 UNK        -0.5027 
     22 N          25.7215  -44.9682  -56.9687 N.am      10 UNK        -0.4495 
     23 C          25.1189  -45.0763  -58.1603 C.2       10 UNK         0.4903 
     24 O          24.4491  -44.1835  -58.6820 O.2       10 UNK        -0.4860 
     25 CA         25.2857  -46.4340  -58.8718 C.3       9 UNK         0.0227 
     26 CB         24.9416  -46.3868  -60.3759 C.3       9 UNK        -0.1964 
     27 N          26.6071  -47.0268  -58.6315 N.am      9 UNK        -0.4231 
     28 C          27.8041  -46.5873  -59.0527 C.2       9 UNK         0.5014 
     29 O          27.9631  -45.6526  -59.8382 O.2       9 UNK        -0.5270 
     30 CA         29.0480  -47.3066  -58.4904 C.3       8 UNK         0.0284 
     31 CB         29.7044  -46.4480  -57.3958 C.3       8 UNK        -0.1977 
     32 N          28.7627  -48.6388  -57.9459 N.am      8 UNK        -0.4342 
     33 C          28.4078  -49.7064  -58.6762 C.2       8 UNK         0.5039 
     34 O          28.3643  -49.7134  -59.9067 O.2       8 UNK        -0.5547 
     35 CA         27.9914  -50.9653  -57.8999 C.3       7 UNK         0.0281 
     36 CB         29.2148  -51.8370  -57.5727 C.3       7 UNK        -0.1963 
     37 N          27.2746  -50.6236  -56.6675 N.am      7 UNK        -0.4444 
     38 C          25.9861  -50.2534  -56.6244 C.2       7 UNK         0.5104 
     39 O          25.2523  -50.2176  -57.6117 O.2       7 UNK        -0.5100 
     40 CA         25.4211  -49.8226  -55.2580 C.3       6 UNK         0.0396 
     41 CB         24.8564  -51.0362  -54.5036 C.3       6 UNK        -0.1801 
     42 N          26.4009  -49.1356  -54.4126 N.am      6 UNK        -0.4747 
     43 C          26.9339  -47.9348  -54.6835 C.2       6 UNK         0.5012 
     44 O          26.6248  -47.2608  -55.6639 O.2       6 UNK        -0.5003 
     45 CA         28.0302  -47.4218  -53.7288 C.3       5 UNK         0.0782 
     46 C46        27.4007  -46.5649  -52.6043 C.3       11 UNK        -0.0868 
     47 S47        28.6323  -45.9669  -51.3974 S.3       11 UNK        -0.2515 
     48 C48        28.7394  -44.1946  -51.8048 C.3       11 UNK         0.0199 
     49 N          28.8812  -48.4960  -53.2011 N.am      5 UNK        -0.4607 
     50 C          29.5965  -49.3605  -53.9328 C.2       4 UNK         0.5031 
     51 O          29.5411  -49.4206  -55.1630 O.2       4 UNK        -0.5119 
     52 CA         30.5112  -50.3146  -53.1403 C.3       4 UNK         0.0263 
     53 CB         31.4613  -51.1237  -54.0491 C.3       4 UNK        -0.1967 
     54 N          31.2625  -49.6258  -52.0795 N.am      4 UNK        -0.4237 
     55 C          32.1304  -48.6144  -52.2413 C.2       3 UNK         0.4908 
     56 O          32.4093  -48.1163  -53.3325 O.2       3 UNK        -0.5102 
     57 CA         32.8170  -48.0456  -50.9837 C.3       3 UNK         0.0241 
     58 CB         32.4810  -48.7765  -49.6624 C.3       3 UNK        -0.1971 
     59 N          34.2635  -47.9559  -51.2096 N.am      3 UNK        -0.4139 
     60 C          35.1127  -48.9737  -51.4141 C.2       2 UNK         0.5016 
     61 O          34.8340  -50.1619  -51.2401 O.2       2 UNK        -0.5319 
     62 CA         36.4809  -48.5884  -52.0054 C.3       2 UNK         0.0286 
     63 CB         37.5389  -49.6926  -51.8240 C.3       2 UNK        -0.1963 
     64 N          36.3259  -48.3077  -53.4349 N.am      2 UNK        -0.4790 
     65 C          35.8118  -47.1767  -53.9409 C.2       1 UNK         0.5024 
     66 O          35.5526  -46.1924  -53.2450 O.2       1 UNK        -0.4888 
     67 H67        39.3702  -47.0999  -57.8739 H         1 UNK         0.0892 
     68 H68        39.8649  -48.0152  -56.4473 H         1 UNK         0.0892 
     69 H69        38.6506  -48.6765  -57.5434 H         1 UNK         0.0892 
     70 H70        36.5952  -48.5141  -56.7143 H         1 UNK         0.3107 
     71 H71        34.8007  -47.9309  -55.6366 H         1 UNK         0.0773 
     72 H72        35.4734  -44.9598  -55.5418 H         1 UNK         0.0680 
     73 H73        35.2552  -45.7290  -57.0784 H         1 UNK         0.0680 
     74 H74        33.3261  -44.9591  -53.6544 H         1 UNK         0.0650 
     75 H75        33.5891  -43.6411  -54.7734 H         1 UNK         0.0650 
     76 H76        31.2510  -45.0066  -52.5139 H         1 UNK         0.1397 
     77 H77        27.9217  -42.7084  -53.9459 H         1 UNK         0.1363 
     78 H78        31.4949  -43.0067  -56.2951 H         1 UNK         0.1355 
     79 H79        29.8346  -41.3783  -56.8622 H         1 UNK         0.0707 
     80 H80        28.5010  -41.0299  -55.8060 H         1 UNK         0.0707 
     81 H81        25.6255  -42.1441  -57.4791 H         1 UNK         0.1034 
     82 H82        26.3464  -41.7132  -55.9627 H         1 UNK         0.1034 
     83 H83        26.4098  -44.0952  -55.2664 H         1 UNK         0.0482 
     84 H84        23.5979  -45.3779  -55.8094 H         1 UNK         0.3460 
     85 H85        22.5732  -44.3485  -54.8382 H         1 UNK         0.3460 
     86 H86        26.1886  -45.7939  -56.5995 H         1 UNK         0.2989 
     87 H87        24.5719  -47.1092  -58.3978 H         1 UNK         0.0559 
     88 H88        25.5544  -45.6614  -60.9114 H         1 UNK         0.0848 
     89 H89        23.8999  -46.1020  -60.5276 H         1 UNK         0.0848 
     90 H90        25.0831  -47.3599  -60.8462 H         1 UNK         0.0848 
     91 H91        26.6202  -47.7753  -57.9515 H         1 UNK         0.3144 
     92 H92        29.7615  -47.4251  -59.3084 H         1 UNK         0.0727 
     93 H93        30.5610  -46.9523  -56.9483 H         1 UNK         0.0790 
     94 H94        29.0037  -46.2032  -56.5981 H         1 UNK         0.0790 
     95 H95        30.0613  -45.5017  -57.8049 H         1 UNK         0.0790 
     96 H96        28.8541  -48.7567  -56.9409 H         1 UNK         0.3215 
     97 H97        27.3251  -51.5484  -58.5401 H         1 UNK         0.0863 
     98 H98        29.9559  -51.2960  -56.9843 H         1 UNK         0.0808 
     99 H99        29.7089  -52.1669  -58.4874 H         1 UNK         0.0808 
    100 H100       28.9304  -52.7310  -57.0177 H         1 UNK         0.0808 
    101 H101       27.8324  -50.5495  -55.8260 H         1 UNK         0.3118 
    102 H102       24.5991  -49.1284  -55.4464 H         1 UNK         0.0546 
    103 H103       24.3751  -50.7366  -53.5725 H         1 UNK         0.0828 
    104 H104       25.6339  -51.7622  -54.2626 H         1 UNK         0.0828 
    105 H105       24.1043  -51.5518  -55.1026 H         1 UNK         0.0828 
    106 H106       26.7159  -49.6223  -53.5855 H         1 UNK         0.3005 
    107 H107       28.6828  -46.7719  -54.3157 H         1 UNK         0.1257 
    108 H108       26.6571  -47.1435  -52.0525 H         1 UNK         0.0775 
    109 H109       26.8657  -45.7130  -53.0290 H         1 UNK         0.0775 
    110 H110       27.7341  -43.7710  -51.8319 H         1 UNK         0.0840 
    111 H111       29.2590  -43.6855  -50.9920 H         1 UNK         0.0840 
    112 H112       29.0016  -48.4995  -52.1988 H         1 UNK         0.2987 
    113 H113       29.8512  -51.0252  -52.6408 H         1 UNK         0.0785 
    114 H114       32.1064  -51.7801  -53.4652 H         1 UNK         0.0798 
    115 H115       30.8987  -51.7532  -54.7390 H         1 UNK         0.0798 
    116 H116       32.0996  -50.4738  -54.6488 H         1 UNK         0.0798 
    117 H117       31.1099  -49.9658  -51.1402 H         1 UNK         0.3079 
    118 H118       32.4608  -47.0187  -50.8883 H         1 UNK         0.0794 
    119 H119       31.4175  -48.7033  -49.4317 H         1 UNK         0.0786 
    120 H120       33.0162  -48.3293  -48.8247 H         1 UNK         0.0786 
    121 H121       32.7437  -49.8344  -49.6905 H         1 UNK         0.0786 
    122 H122       34.5912  -47.0408  -51.4982 H         1 UNK         0.3032 
    123 H123       36.8375  -47.6926  -51.4910 H         1 UNK         0.1094 
    124 H124       37.2611  -50.6133  -52.3388 H         1 UNK         0.0794 
    125 H125       38.5101  -49.3762  -52.2050 H         1 UNK         0.0794 
    126 H126       37.6690  -49.9360  -50.7686 H         1 UNK         0.0794 
    127 H127       36.5094  -49.0752  -54.0650 H         1 UNK         0.3016 
@<TRIPOS>BOND
     1    1    2 1    
     2    1   67 1    
     3    1   68 1    
     4    1   69 1    
     5    2    3 2    
     6    2    4 am   BACKBONE|DICT|INTERRES
     7    4    5 1    
     8    4   70 1    
     9    5    6 1    
    10    5   65 1    
    11    5   71 1    
    12    6    7 1    
    13    6   72 1    
    14    6   73 1    
    15    7    8 1    
    16    8    9 1    
    17    8   74 1    
    18    8   75 1    
    19    9   10 ar   
    20    9   14 ar   
    21   10   11 ar   
    22   10   76 1    
    23   11   12 ar   
    24   11   48 1    
    25   12   13 ar   
    26   12   77 1    
    27   13   14 ar   
    28   13   15 1    
    29   14   78 1    
    30   15   16 1    
    31   15   79 1    
    32   15   80 1    
    33   16   17 1    
    34   17   18 1    
    35   17   81 1    
    36   17   82 1    
    37   18   19 1    
    38   18   22 1    
    39   18   83 1    
    40   19   20 am   BACKBONE|DICT|INTERRES
    41   19   21 2    
    42   20   84 1    
    43   20   85 1    
    44   22   23 am   BACKBONE|DICT|INTERRES
    45   22   86 1    
    46   23   24 2    
    47   23   25 1    
    48   25   26 1    
    49   25   27 1    
    50   25   87 1    
    51   26   88 1    
    52   26   89 1    
    53   26   90 1    
    54   27   28 am   BACKBONE|DICT|INTERRES
    55   27   91 1    
    56   28   29 2    
    57   28   30 1    
    58   30   31 1    
    59   30   32 1    
    60   30   92 1    
    61   31   93 1    
    62   31   94 1    
    63   31   95 1    
    64   32   33 am   BACKBONE|DICT|INTERRES
    65   32   96 1    
    66   33   34 2    
    67   33   35 1    
    68   35   36 1    
    69   35   37 1    
    70   35   97 1    
    71   36   98 1    
    72   36   99 1    
    73   36  100 1    
    74   37   38 am   BACKBONE|DICT|INTERRES
    75   37  101 1    
    76   38   39 2    
    77   38   40 1    
    78   40   41 1    
    79   40   42 1    
    80   40  102 1    
    81   41  103 1    
    82   41  104 1    
    83   41  105 1    
    84   42   43 am   BACKBONE|DICT|INTERRES
    85   42  106 1    
    86   43   44 2    
    87   43   45 1    
    88   45   46 1    
    89   45   49 1    
    90   45  107 1    
    91   46   47 1    
    92   46  108 1    
    93   46  109 1    
    94   47   48 1    
    95   48  110 1    
    96   48  111 1    
    97   49   50 am   BACKBONE|DICT|INTERRES
    98   49  112 1    
    99   50   51 2    
   100   50   52 1    
   101   52   53 1    
   102   52   54 1    
   103   52  113 1    
   104   53  114 1    
   105   53  115 1    
   106   53  116 1    
   107   54   55 am   BACKBONE|DICT|INTERRES
   108   54  117 1    
   109   55   56 2    
   110   55   57 1    
   111   57   58 1    
   112   57   59 1    
   113   57  118 1    
   114   58  119 1    
   115   58  120 1    
   116   58  121 1    
   117   59   60 am   BACKBONE|DICT|INTERRES
   118   59  122 1    
   119   60   61 2    
   120   60   62 1    
   121   62   63 1    
   122   62   64 1    
   123   62  123 1    
   124   63  124 1    
   125   63  125 1    
   126   63  126 1    
   127   64   65 am   BACKBONE|DICT|INTERRES
   128   64  127 1    
   129   65   66 2    
@<TRIPOS>SUBSTRUCTURE
     1 UNK         1 GROUP             0       ****    0 ROOT    
