@<TRIPOS>MOLECULE
3R134
127   129    1
SMALL
USER_CHARGES


@<TRIPOS>ATOM
      1 CA         28.9601  -47.0509  -49.2714 C.3       0 UNK        -0.1968 
      2 C          30.3036  -46.5214  -49.7514 C.2       0 UNK         0.4852 
      3 O          30.6767  -45.3988  -49.4087 O.2       0 UNK        -0.5359 
      4 N          31.0257  -47.3174  -50.5469 N.am      1 UNK        -0.4300 
      5 CA         32.3359  -46.9959  -51.1022 C.3       1 UNK         0.0863 
      6 C6         32.2258  -46.1643  -52.4064 C.3       11 UNK        -0.0953 
      7 S7         33.7852  -45.3346  -52.8471 S.3       11 UNK        -0.2369 
      8 C8         33.2546  -43.5902  -52.9767 C.3       11 UNK         0.0226 
      9 C9         32.4746  -43.2951  -54.2557 C.ar      11 UNK        -0.0699 
     10 C10        33.0191  -43.6342  -55.4988 C.ar      11 UNK        -0.0804 
     11 C11        32.3198  -43.3642  -56.6776 C.ar      11 UNK        -0.0871 
     12 C12        31.1095  -42.6786  -56.6146 C.ar      11 UNK        -0.1008 
     13 C13        30.5343  -42.3530  -55.3852 C.ar      11 UNK        -0.0735 
     14 C14        31.2227  -42.6653  -54.2049 C.ar      11 UNK        -0.0945 
     15 C15        29.1766  -41.6583  -55.3508 C.3       11 UNK         0.0169 
     16 S16        27.7849  -42.8071  -55.6440 S.3       11 UNK        -0.2669 
     17 C17        28.0155  -43.2700  -57.3994 C.3       11 UNK        -0.0850 
     18 CA         26.7160  -43.6935  -58.1319 C.3       10 UNK         0.0855 
     19 C          26.9697  -43.9116  -59.6550 C.2       10 UNK         0.5543 
     20 N          26.6274  -45.0526  -60.2437 N.am      10 UNK        -0.7343 
     21 O          27.4769  -43.0145  -60.3238 O.2       10 UNK        -0.5027 
     22 N          26.0448  -44.8274  -57.4770 N.am      10 UNK        -0.4495 
     23 C          24.7230  -45.0359  -57.5282 C.2       10 UNK         0.4903 
     24 O          23.9320  -44.2582  -58.0658 O.2       10 UNK        -0.4860 
     25 CA         24.1931  -46.3222  -56.8684 C.3       9 UNK         0.0227 
     26 CB         22.7541  -46.6707  -57.3060 C.3       9 UNK        -0.1964 
     27 N          25.0718  -47.4861  -57.0315 N.am      9 UNK        -0.4231 
     28 C          25.4618  -48.0767  -58.1728 C.2       9 UNK         0.5014 
     29 O          25.2010  -47.6228  -59.2883 O.2       9 UNK        -0.5270 
     30 CA         26.2736  -49.3909  -58.0669 C.3       8 UNK         0.0284 
     31 CB         27.3988  -49.4541  -59.1160 C.3       8 UNK        -0.1977 
     32 N          26.8524  -49.6170  -56.7397 N.am      8 UNK        -0.4342 
     33 C          26.2016  -50.0700  -55.6588 C.2       8 UNK         0.5039 
     34 O          25.0487  -50.4994  -55.6829 O.2       8 UNK        -0.5547 
     35 CA         26.9261  -49.9166  -54.3081 C.3       7 UNK         0.0281 
     36 CB         27.7209  -51.1822  -53.9480 C.3       7 UNK        -0.1963 
     37 N          27.8011  -48.7356  -54.2931 N.am      7 UNK        -0.4444 
     38 C          27.3455  -47.4729  -54.3065 C.2       7 UNK         0.5104 
     39 O          26.1523  -47.1862  -54.2214 O.2       7 UNK        -0.5100 
     40 CA         28.3670  -46.3403  -54.4951 C.3       6 UNK         0.0396 
     41 CB         28.7357  -45.7150  -53.1457 C.3       6 UNK        -0.1801 
     42 N          29.5786  -46.7622  -55.2058 N.am      6 UNK        -0.4747 
     43 C          29.6457  -46.9238  -56.5371 C.2       6 UNK         0.5012 
     44 O          28.6987  -46.6954  -57.2904 O.2       6 UNK        -0.5003 
     45 CA         30.9517  -47.5311  -57.1037 C.3       5 UNK         0.0782 
     46 C46        32.0828  -46.5000  -57.3233 C.3       11 UNK        -0.0868 
     47 S47        31.7733  -45.2520  -58.6158 S.3       11 UNK        -0.2515 
     48 C48        32.8186  -43.8759  -58.0197 C.3       11 UNK         0.0199 
     49 N          31.4617  -48.5983  -56.2434 N.am      5 UNK        -0.4607 
     50 C          30.8706  -49.7679  -55.9845 C.2       4 UNK         0.5031 
     51 O          29.7714  -50.0783  -56.4409 O.2       4 UNK        -0.5119 
     52 CA         31.5998  -50.7160  -55.0086 C.3       4 UNK         0.0263 
     53 CB         31.5758  -52.1806  -55.4926 C.3       4 UNK        -0.1967 
     54 N          32.9620  -50.2758  -54.6551 N.am      4 UNK        -0.4237 
     55 C          34.0416  -50.2159  -55.4566 C.2       3 UNK         0.4908 
     56 O          34.0477  -50.6119  -56.6219 O.2       3 UNK        -0.5102 
     57 CA         35.3156  -49.5401  -54.9085 C.3       3 UNK         0.0241 
     58 CB         35.5954  -48.2316  -55.6704 C.3       3 UNK        -0.1971 
     59 N          35.2596  -49.2353  -53.4781 N.am      3 UNK        -0.4139 
     60 C          35.3930  -50.1297  -52.4903 C.2       2 UNK         0.5016 
     61 O          35.6463  -51.3206  -52.6726 O.2       2 UNK        -0.5319 
     62 CA         35.1788  -49.6110  -51.0560 C.3       2 UNK         0.0286 
     63 CB         36.5310  -49.3376  -50.3777 C.3       2 UNK        -0.1963 
     64 N          34.3418  -48.4051  -50.9650 N.am      2 UNK        -0.4790 
     65 C          33.0537  -48.3336  -51.3289 C.2       1 UNK         0.5024 
     66 O          32.4356  -49.2661  -51.8503 O.2       1 UNK        -0.4888 
     67 H67        28.1588  -46.3878  -49.5966 H         1 UNK         0.0892 
     68 H68        28.7519  -48.0482  -49.6588 H         1 UNK         0.0892 
     69 H69        28.9426  -47.0991  -48.1830 H         1 UNK         0.0892 
     70 H70        30.7083  -48.2534  -50.7682 H         1 UNK         0.3107 
     71 H71        32.8924  -46.4264  -50.3540 H         1 UNK         0.0773 
     72 H72        31.8959  -46.7753  -53.2476 H         1 UNK         0.0680 
     73 H73        31.4667  -45.3931  -52.2797 H         1 UNK         0.0680 
     74 H74        32.6762  -43.3221  -52.0911 H         1 UNK         0.0650 
     75 H75        34.1433  -42.9582  -52.9636 H         1 UNK         0.0650 
     76 H76        33.9709  -44.1458  -55.5439 H         1 UNK         0.1397 
     77 H77        30.5989  -42.4435  -57.5358 H         1 UNK         0.1363 
     78 H78        30.7889  -42.4073  -53.2486 H         1 UNK         0.1355 
     79 H79        29.0293  -41.1782  -54.3823 H         1 UNK         0.0707 
     80 H80        29.1504  -40.8572  -56.0910 H         1 UNK         0.0707 
     81 H81        28.4384  -42.4058  -57.9133 H         1 UNK         0.1034 
     82 H82        28.7613  -44.0638  -57.4583 H         1 UNK         0.1034 
     83 H83        26.0448  -42.8342  -58.0767 H         1 UNK         0.0482 
     84 H84        26.7975  -45.1648  -61.2300 H         1 UNK         0.3460 
     85 H85        26.1845  -45.8002  -59.7233 H         1 UNK         0.3460 
     86 H86        26.6498  -45.5299  -57.0734 H         1 UNK         0.2989 
     87 H87        24.1650  -46.1153  -55.7979 H         1 UNK         0.0559 
     88 H88        22.0625  -45.8632  -57.0625 H         1 UNK         0.0848 
     89 H89        22.3916  -47.5666  -56.8019 H         1 UNK         0.0848 
     90 H90        22.6892  -46.8411  -58.3813 H         1 UNK         0.0848 
     91 H91        25.3777  -47.9012  -56.1604 H         1 UNK         0.3144 
     92 H92        25.5772  -50.2049  -58.2777 H         1 UNK         0.0727 
     93 H93        28.1017  -48.6285  -59.0046 H         1 UNK         0.0790 
     94 H94        26.9963  -49.4038  -60.1284 H         1 UNK         0.0790 
     95 H95        27.9617  -50.3846  -59.0392 H         1 UNK         0.0790 
     96 H96        27.8296  -49.3663  -56.6309 H         1 UNK         0.3215 
     97 H97        26.1620  -49.7751  -53.5401 H         1 UNK         0.0863 
     98 H98        28.2511  -51.0664  -53.0027 H         1 UNK         0.0808 
     99 H99        28.4482  -51.4448  -54.7145 H         1 UNK         0.0808 
    100 H100       27.0513  -52.0363  -53.8397 H         1 UNK         0.0808 
    101 H101       28.7910  -48.8945  -54.3979 H         1 UNK         0.3118 
    102 H102       27.8723  -45.5726  -55.0893 H         1 UNK         0.0546 
    103 H103       29.2352  -46.4330  -52.4987 H         1 UNK         0.0828 
    104 H104       27.8451  -45.3668  -52.6208 H         1 UNK         0.0828 
    105 H105       29.3865  -44.8510  -53.2773 H         1 UNK         0.0828 
    106 H106       30.3947  -46.9674  -54.6508 H         1 UNK         0.3005 
    107 H107       30.7023  -47.9796  -58.0682 H         1 UNK         0.1257 
    108 H108       32.3145  -46.0196  -56.3745 H         1 UNK         0.0775 
    109 H109       32.9976  -47.0178  -57.6177 H         1 UNK         0.0775 
    110 H110       33.8556  -44.2089  -57.9524 H         1 UNK         0.0840 
    111 H111       32.7997  -43.0664  -58.7508 H         1 UNK         0.0840 
    112 H112       32.3684  -48.4413  -55.8323 H         1 UNK         0.2987 
    113 H113       31.0310  -50.6745  -54.0785 H         1 UNK         0.0785 
    114 H114       30.5520  -52.5431  -55.5909 H         1 UNK         0.0798 
    115 H115       32.0851  -52.8391  -54.7891 H         1 UNK         0.0798 
    116 H116       32.0501  -52.2973  -56.4671 H         1 UNK         0.0798 
    117 H117       33.0562  -49.9338  -53.7039 H         1 UNK         0.3079 
    118 H118       36.1467  -50.2262  -55.0854 H         1 UNK         0.0794 
    119 H119       36.5377  -47.7837  -55.3539 H         1 UNK         0.0786 
    120 H120       34.8069  -47.4938  -55.5161 H         1 UNK         0.0786 
    121 H121       35.6715  -48.4086  -56.7444 H         1 UNK         0.0786 
    122 H122       35.0712  -48.2765  -53.2221 H         1 UNK         0.3032 
    123 H123       34.6731  -50.4069  -50.5043 H         1 UNK         0.1094 
    124 H124       37.0744  -48.5299  -50.8699 H         1 UNK         0.0794 
    125 H125       36.4028  -49.0676  -49.3292 H         1 UNK         0.0794 
    126 H126       37.1683  -50.2228  -50.4052 H         1 UNK         0.0794 
    127 H127       34.7775  -47.5856  -50.5644 H         1 UNK         0.3016 
@<TRIPOS>BOND
     1    1    2 1    
     2    1   67 1    
     3    1   68 1    
     4    1   69 1    
     5    2    3 2    
     6    2    4 am   BACKBONE|DICT|INTERRES
     7    4    5 1    
     8    4   70 1    
     9    5    6 1    
    10    5   65 1    
    11    5   71 1    
    12    6    7 1    
    13    6   72 1    
    14    6   73 1    
    15    7    8 1    
    16    8    9 1    
    17    8   74 1    
    18    8   75 1    
    19    9   10 ar   
    20    9   14 ar   
    21   10   11 ar   
    22   10   76 1    
    23   11   12 ar   
    24   11   48 1    
    25   12   13 ar   
    26   12   77 1    
    27   13   14 ar   
    28   13   15 1    
    29   14   78 1    
    30   15   16 1    
    31   15   79 1    
    32   15   80 1    
    33   16   17 1    
    34   17   18 1    
    35   17   81 1    
    36   17   82 1    
    37   18   19 1    
    38   18   22 1    
    39   18   83 1    
    40   19   20 am   BACKBONE|DICT|INTERRES
    41   19   21 2    
    42   20   84 1    
    43   20   85 1    
    44   22   23 am   BACKBONE|DICT|INTERRES
    45   22   86 1    
    46   23   24 2    
    47   23   25 1    
    48   25   26 1    
    49   25   27 1    
    50   25   87 1    
    51   26   88 1    
    52   26   89 1    
    53   26   90 1    
    54   27   28 am   BACKBONE|DICT|INTERRES
    55   27   91 1    
    56   28   29 2    
    57   28   30 1    
    58   30   31 1    
    59   30   32 1    
    60   30   92 1    
    61   31   93 1    
    62   31   94 1    
    63   31   95 1    
    64   32   33 am   BACKBONE|DICT|INTERRES
    65   32   96 1    
    66   33   34 2    
    67   33   35 1    
    68   35   36 1    
    69   35   37 1    
    70   35   97 1    
    71   36   98 1    
    72   36   99 1    
    73   36  100 1    
    74   37   38 am   BACKBONE|DICT|INTERRES
    75   37  101 1    
    76   38   39 2    
    77   38   40 1    
    78   40   41 1    
    79   40   42 1    
    80   40  102 1    
    81   41  103 1    
    82   41  104 1    
    83   41  105 1    
    84   42   43 am   BACKBONE|DICT|INTERRES
    85   42  106 1    
    86   43   44 2    
    87   43   45 1    
    88   45   46 1    
    89   45   49 1    
    90   45  107 1    
    91   46   47 1    
    92   46  108 1    
    93   46  109 1    
    94   47   48 1    
    95   48  110 1    
    96   48  111 1    
    97   49   50 am   BACKBONE|DICT|INTERRES
    98   49  112 1    
    99   50   51 2    
   100   50   52 1    
   101   52   53 1    
   102   52   54 1    
   103   52  113 1    
   104   53  114 1    
   105   53  115 1    
   106   53  116 1    
   107   54   55 am   BACKBONE|DICT|INTERRES
   108   54  117 1    
   109   55   56 2    
   110   55   57 1    
   111   57   58 1    
   112   57   59 1    
   113   57  118 1    
   114   58  119 1    
   115   58  120 1    
   116   58  121 1    
   117   59   60 am   BACKBONE|DICT|INTERRES
   118   59  122 1    
   119   60   61 2    
   120   60   62 1    
   121   62   63 1    
   122   62   64 1    
   123   62  123 1    
   124   63  124 1    
   125   63  125 1    
   126   63  126 1    
   127   64   65 am   BACKBONE|DICT|INTERRES
   128   64  127 1    
   129   65   66 2    
@<TRIPOS>SUBSTRUCTURE
     1 UNK         1 GROUP             0       ****    0 ROOT    
