@<TRIPOS>MOLECULE
3R134
127   129    1
SMALL
USER_CHARGES


@<TRIPOS>ATOM
      1 CA         33.4598  -44.8390  -49.1520 C.3       0 UNK        -0.1968 
      2 C          33.9133  -45.2089  -50.5558 C.2       0 UNK         0.4852 
      3 O          33.3609  -46.1391  -51.1440 O.2       0 UNK        -0.5359 
      4 N          34.9108  -44.4865  -51.0891 N.am      1 UNK        -0.4300 
      5 CA         35.5018  -44.6509  -52.4241 C.3       1 UNK         0.0863 
      6 C6         34.5882  -44.1163  -53.5641 C.3       11 UNK        -0.0953 
      7 S7         34.3994  -42.2967  -53.5357 S.3       11 UNK        -0.2369 
      8 C8         32.7655  -42.0206  -52.7715 C.3       11 UNK         0.0226 
      9 C9         31.6410  -42.7111  -53.5292 C.ar      11 UNK        -0.0699 
     10 C10        31.1127  -43.9027  -53.0307 C.ar      11 UNK        -0.0804 
     11 C11        30.1467  -44.6063  -53.7490 C.ar      11 UNK        -0.0871 
     12 C12        29.6595  -44.0825  -54.9477 C.ar      11 UNK        -0.1008 
     13 C13        30.1623  -42.8785  -55.4482 C.ar      11 UNK        -0.0735 
     14 C14        31.1526  -42.1920  -54.7343 C.ar      11 UNK        -0.0945 
     15 C15        29.6602  -42.3631  -56.7865 C.3       11 UNK         0.0169 
     16 S16        28.0777  -41.4875  -56.6012 S.3       11 UNK        -0.2669 
     17 C17        27.3532  -41.6924  -58.2665 C.3       11 UNK        -0.0850 
     18 CA         26.0099  -42.4722  -58.2346 C.3       10 UNK         0.0855 
     19 C          25.3058  -42.4635  -59.6250 C.2       10 UNK         0.5543 
     20 N          24.8665  -43.5920  -60.1697 N.am      10 UNK        -0.7343 
     21 O          25.1440  -41.4021  -60.2224 O.2       10 UNK        -0.5027 
     22 N          26.1557  -43.8136  -57.6391 N.am      10 UNK        -0.4495 
     23 C          25.1960  -44.4394  -56.9460 C.2       10 UNK         0.4903 
     24 O          24.1034  -43.9321  -56.6850 O.2       10 UNK        -0.4860 
     25 CA         25.5088  -45.8766  -56.4756 C.3       9 UNK         0.0227 
     26 CB         24.2568  -46.6110  -55.9526 C.3       9 UNK        -0.1964 
     27 N          26.1950  -46.7056  -57.4775 N.am      9 UNK        -0.4231 
     28 C          25.8160  -46.9440  -58.7443 C.2       9 UNK         0.5014 
     29 O          24.8398  -46.4226  -59.2839 O.2       9 UNK        -0.5270 
     30 CA         26.6762  -47.9288  -59.5494 C.3       8 UNK         0.0284 
     31 CB         27.9974  -47.2672  -59.9783 C.3       8 UNK        -0.1977 
     32 N          26.9597  -49.1346  -58.7684 N.am      8 UNK        -0.4342 
     33 C          26.3262  -50.3089  -58.9018 C.2       8 UNK         0.5039 
     34 O          25.4695  -50.5318  -59.7584 O.2       8 UNK        -0.5547 
     35 CA         26.7059  -51.4356  -57.9176 C.3       7 UNK         0.0281 
     36 CB         27.7903  -52.3382  -58.5276 C.3       7 UNK        -0.1963 
     37 N          27.1706  -50.9399  -56.6199 N.am      7 UNK        -0.4444 
     38 C          26.4016  -50.2858  -55.7361 C.2       7 UNK         0.5104 
     39 O          25.1814  -50.1747  -55.8497 O.2       7 UNK        -0.5100 
     40 CA         27.1070  -49.6055  -54.5445 C.3       6 UNK         0.0396 
     41 CB         26.8930  -50.4167  -53.2576 C.3       6 UNK        -0.1801 
     42 N          28.5448  -49.3852  -54.7335 N.am      6 UNK        -0.4747 
     43 C          29.1154  -48.6772  -55.7201 C.2       6 UNK         0.5012 
     44 O          28.4716  -48.0665  -56.5737 O.2       6 UNK        -0.5003 
     45 CA         30.6563  -48.6617  -55.7944 C.3       5 UNK         0.0782 
     46 C46        31.2042  -47.3198  -55.2568 C.3       11 UNK        -0.0868 
     47 S47        31.0554  -47.1732  -53.4368 S.3       11 UNK        -0.2515 
     48 C48        29.7000  -45.9711  -53.2600 C.3       11 UNK         0.0199 
     49 N          31.3167  -49.7827  -55.1210 N.am      5 UNK        -0.4607 
     50 C          31.1104  -51.0969  -55.2664 C.2       4 UNK         0.5031 
     51 O          30.3181  -51.5780  -56.0776 O.2       4 UNK        -0.5119 
     52 CA         31.9080  -52.0226  -54.3224 C.3       4 UNK         0.0263 
     53 CB         32.8756  -52.9062  -55.1258 C.3       4 UNK        -0.1967 
     54 N          32.6726  -51.2911  -53.3009 N.am      4 UNK        -0.4237 
     55 C          32.1668  -50.6506  -52.2376 C.2       3 UNK         0.4908 
     56 O          30.9795  -50.7102  -51.9182 O.2       3 UNK        -0.5102 
     57 CA         33.1206  -49.7387  -51.4350 C.3       3 UNK         0.0241 
     58 CB         33.9042  -50.5414  -50.3787 C.3       3 UNK        -0.1971 
     59 N          34.0138  -48.8981  -52.2562 N.am      3 UNK        -0.4139 
     60 C          35.0063  -49.2849  -53.0756 C.2       2 UNK         0.5016 
     61 O          35.3344  -50.4620  -53.2319 O.2       2 UNK        -0.5319 
     62 CA         35.7230  -48.2155  -53.9193 C.3       2 UNK         0.0286 
     63 CB         35.4218  -48.4312  -55.4131 C.3       2 UNK        -0.1963 
     64 N          35.3643  -46.8407  -53.5648 N.am      2 UNK        -0.4790 
     65 C          35.9928  -46.1031  -52.6387 C.2       1 UNK         0.5024 
     66 O          36.9328  -46.5223  -51.9605 O.2       1 UNK        -0.4888 
     67 H67        33.5924  -45.6870  -48.4808 H         1 UNK         0.0892 
     68 H68        34.0202  -43.9953  -48.7496 H         1 UNK         0.0892 
     69 H69        32.4034  -44.5721  -49.1596 H         1 UNK         0.0892 
     70 H70        35.3338  -43.7591  -50.5301 H         1 UNK         0.3107 
     71 H71        36.4094  -44.0449  -52.4263 H         1 UNK         0.0773 
     72 H72        35.0260  -44.3462  -54.5372 H         1 UNK         0.0680 
     73 H73        33.6177  -44.6095  -53.5506 H         1 UNK         0.0680 
     74 H74        32.5711  -40.9478  -52.7353 H         1 UNK         0.0650 
     75 H75        32.7976  -42.3590  -51.7348 H         1 UNK         0.0650 
     76 H76        31.4999  -44.3230  -52.1127 H         1 UNK         0.1397 
     77 H77        28.9140  -44.6273  -55.5110 H         1 UNK         0.1363 
     78 H78        31.5626  -41.2715  -55.1270 H         1 UNK         0.1355 
     79 H79        29.5442  -43.2074  -57.4678 H         1 UNK         0.0707 
     80 H80        30.3913  -41.6951  -57.2446 H         1 UNK         0.0707 
     81 H81        28.0618  -42.1791  -58.9385 H         1 UNK         0.1034 
     82 H82        27.2011  -40.6908  -58.6737 H         1 UNK         0.1034 
     83 H83        25.3439  -41.8968  -57.5886 H         1 UNK         0.0482 
     84 H84        24.4108  -43.5542  -61.0673 H         1 UNK         0.3460 
     85 H85        24.9446  -44.4811  -59.6873 H         1 UNK         0.3460 
     86 H86        27.0162  -44.3022  -57.8332 H         1 UNK         0.2989 
     87 H87        26.2030  -45.7754  -55.6401 H         1 UNK         0.0559 
     88 H88        23.5096  -46.7399  -56.7365 H         1 UNK         0.0848 
     89 H89        23.7854  -46.0587  -55.1387 H         1 UNK         0.0848 
     90 H90        24.5074  -47.5972  -55.5648 H         1 UNK         0.0848 
     91 H91        27.0436  -47.1636  -57.1478 H         1 UNK         0.3144 
     92 H92        26.1246  -48.1899  -60.4551 H         1 UNK         0.0727 
     93 H93        28.5871  -47.9373  -60.6040 H         1 UNK         0.0790 
     94 H94        28.6124  -46.9830  -59.1236 H         1 UNK         0.0790 
     95 H95        27.8094  -46.3638  -60.5605 H         1 UNK         0.0790 
     96 H96        27.6180  -49.0246  -58.0038 H         1 UNK         0.3215 
     97 H97        25.8115  -52.0392  -57.7479 H         1 UNK         0.0863 
     98 H98        28.0149  -53.1838  -57.8771 H         1 UNK         0.0808 
     99 H99        28.7196  -51.7933  -58.6995 H         1 UNK         0.0808 
    100 H100       27.4666  -52.7445  -59.4869 H         1 UNK         0.0808 
    101 H101       28.1614  -51.0279  -56.4238 H         1 UNK         0.3118 
    102 H102       26.6435  -48.6256  -54.4136 H         1 UNK         0.0546 
    103 H103       25.8305  -50.5716  -53.0645 H         1 UNK         0.0828 
    104 H104       27.3062  -49.9021  -52.3898 H         1 UNK         0.0828 
    105 H105       27.3604  -51.4004  -53.3190 H         1 UNK         0.0828 
    106 H106       29.1598  -49.8343  -54.0687 H         1 UNK         0.3005 
    107 H107       30.9095  -48.7367  -56.8540 H         1 UNK         0.1257 
    108 H108       30.7238  -46.4780  -55.7562 H         1 UNK         0.0775 
    109 H109       32.2610  -47.2283  -55.5076 H         1 UNK         0.0775 
    110 H110       28.8190  -46.3199  -53.8009 H         1 UNK         0.0840 
    111 H111       29.4145  -45.9069  -52.2091 H         1 UNK         0.0840 
    112 H112       31.9641  -49.5076  -54.3980 H         1 UNK         0.2987 
    113 H113       31.1872  -52.6677  -53.8161 H         1 UNK         0.0785 
    114 H114       33.6254  -52.3106  -55.6485 H         1 UNK         0.0798 
    115 H115       32.3419  -53.4918  -55.8758 H         1 UNK         0.0798 
    116 H116       33.3985  -53.6110  -54.4790 H         1 UNK         0.0798 
    117 H117       33.6744  -51.1878  -53.4576 H         1 UNK         0.3079 
    118 H118       32.4859  -49.0313  -50.8981 H         1 UNK         0.0794 
    119 H119       34.5570  -51.2886  -50.8305 H         1 UNK         0.0786 
    120 H120       33.2234  -51.0697  -49.7099 H         1 UNK         0.0786 
    121 H121       34.5202  -49.8863  -49.7626 H         1 UNK         0.0786 
    122 H122       33.8242  -47.9014  -52.1857 H         1 UNK         0.3032 
    123 H123       36.7956  -48.3591  -53.7683 H         1 UNK         0.1094 
    124 H124       35.9472  -47.7049  -56.0334 H         1 UNK         0.0794 
    125 H125       35.7441  -49.4216  -55.7383 H         1 UNK         0.0794 
    126 H126       34.3567  -48.3514  -55.6297 H         1 UNK         0.0794 
    127 H127       34.5762  -46.4352  -54.0489 H         1 UNK         0.3016 
@<TRIPOS>BOND
     1    1    2 1    
     2    1   67 1    
     3    1   68 1    
     4    1   69 1    
     5    2    3 2    
     6    2    4 am   BACKBONE|DICT|INTERRES
     7    4    5 1    
     8    4   70 1    
     9    5    6 1    
    10    5   65 1    
    11    5   71 1    
    12    6    7 1    
    13    6   72 1    
    14    6   73 1    
    15    7    8 1    
    16    8    9 1    
    17    8   74 1    
    18    8   75 1    
    19    9   10 ar   
    20    9   14 ar   
    21   10   11 ar   
    22   10   76 1    
    23   11   12 ar   
    24   11   48 1    
    25   12   13 ar   
    26   12   77 1    
    27   13   14 ar   
    28   13   15 1    
    29   14   78 1    
    30   15   16 1    
    31   15   79 1    
    32   15   80 1    
    33   16   17 1    
    34   17   18 1    
    35   17   81 1    
    36   17   82 1    
    37   18   19 1    
    38   18   22 1    
    39   18   83 1    
    40   19   20 am   BACKBONE|DICT|INTERRES
    41   19   21 2    
    42   20   84 1    
    43   20   85 1    
    44   22   23 am   BACKBONE|DICT|INTERRES
    45   22   86 1    
    46   23   24 2    
    47   23   25 1    
    48   25   26 1    
    49   25   27 1    
    50   25   87 1    
    51   26   88 1    
    52   26   89 1    
    53   26   90 1    
    54   27   28 am   BACKBONE|DICT|INTERRES
    55   27   91 1    
    56   28   29 2    
    57   28   30 1    
    58   30   31 1    
    59   30   32 1    
    60   30   92 1    
    61   31   93 1    
    62   31   94 1    
    63   31   95 1    
    64   32   33 am   BACKBONE|DICT|INTERRES
    65   32   96 1    
    66   33   34 2    
    67   33   35 1    
    68   35   36 1    
    69   35   37 1    
    70   35   97 1    
    71   36   98 1    
    72   36   99 1    
    73   36  100 1    
    74   37   38 am   BACKBONE|DICT|INTERRES
    75   37  101 1    
    76   38   39 2    
    77   38   40 1    
    78   40   41 1    
    79   40   42 1    
    80   40  102 1    
    81   41  103 1    
    82   41  104 1    
    83   41  105 1    
    84   42   43 am   BACKBONE|DICT|INTERRES
    85   42  106 1    
    86   43   44 2    
    87   43   45 1    
    88   45   46 1    
    89   45   49 1    
    90   45  107 1    
    91   46   47 1    
    92   46  108 1    
    93   46  109 1    
    94   47   48 1    
    95   48  110 1    
    96   48  111 1    
    97   49   50 am   BACKBONE|DICT|INTERRES
    98   49  112 1    
    99   50   51 2    
   100   50   52 1    
   101   52   53 1    
   102   52   54 1    
   103   52  113 1    
   104   53  114 1    
   105   53  115 1    
   106   53  116 1    
   107   54   55 am   BACKBONE|DICT|INTERRES
   108   54  117 1    
   109   55   56 2    
   110   55   57 1    
   111   57   58 1    
   112   57   59 1    
   113   57  118 1    
   114   58  119 1    
   115   58  120 1    
   116   58  121 1    
   117   59   60 am   BACKBONE|DICT|INTERRES
   118   59  122 1    
   119   60   61 2    
   120   60   62 1    
   121   62   63 1    
   122   62   64 1    
   123   62  123 1    
   124   63  124 1    
   125   63  125 1    
   126   63  126 1    
   127   64   65 am   BACKBONE|DICT|INTERRES
   128   64  127 1    
   129   65   66 2    
@<TRIPOS>SUBSTRUCTURE
     1 UNK         1 GROUP             0       ****    0 ROOT    
