@<TRIPOS>MOLECULE
3R134
127   129    1
SMALL
USER_CHARGES


@<TRIPOS>ATOM
      1 CA         36.0778  -43.8983  -48.5244 C.3       0 UNK        -0.1968 
      2 C          35.7485  -44.3462  -49.9409 C.2       0 UNK         0.4852 
      3 O          36.6587  -44.6641  -50.7084 O.2       0 UNK        -0.5359 
      4 N          34.4571  -44.3645  -50.2941 N.am      1 UNK        -0.4300 
      5 CA         33.9466  -44.8097  -51.5953 C.3       1 UNK         0.0863 
      6 C6         32.4801  -44.3655  -51.8271 C.3       11 UNK        -0.0953 
      7 S7         32.2341  -42.5666  -51.6275 S.3       11 UNK        -0.2369 
      8 C8         32.7980  -41.9138  -53.2305 C.3       11 UNK         0.0226 
      9 C9         31.8319  -42.2476  -54.3564 C.ar      11 UNK        -0.0699 
     10 C10        32.1073  -43.3003  -55.2327 C.ar      11 UNK        -0.0804 
     11 C11        31.2181  -43.6228  -56.2651 C.ar      11 UNK        -0.0871 
     12 C12        30.0631  -42.8505  -56.4327 C.ar      11 UNK        -0.1008 
     13 C13        29.7856  -41.7831  -55.5740 C.ar      11 UNK        -0.0735 
     14 C14        30.6704  -41.4917  -54.5324 C.ar      11 UNK        -0.0945 
     15 C15        28.5491  -40.9218  -55.7814 C.3       11 UNK         0.0169 
     16 S16        27.1347  -41.5224  -54.8063 S.3       11 UNK        -0.2669 
     17 C17        26.3438  -42.7133  -55.9455 C.3       11 UNK        -0.0850 
     18 CA         26.6348  -44.2060  -55.6249 C.3       10 UNK         0.0855 
     19 C          26.0668  -44.6408  -54.2496 C.2       10 UNK         0.5543 
     20 N          26.8852  -44.6401  -53.2066 N.am      10 UNK        -0.7343 
     21 O          24.8832  -44.9490  -54.1188 O.2       10 UNK        -0.5027 
     22 N          26.0918  -45.0838  -56.6672 N.am      10 UNK        -0.4495 
     23 C          26.5933  -45.2392  -57.8946 C.2       10 UNK         0.4903 
     24 O          27.6290  -44.7005  -58.2871 O.2       10 UNK        -0.4860 
     25 CA         25.7908  -46.1262  -58.8551 C.3       9 UNK         0.0227 
     26 CB         25.7451  -45.5091  -60.2705 C.3       9 UNK        -0.1964 
     27 N          26.3825  -47.4619  -58.8812 N.am      9 UNK        -0.4231 
     28 C          25.8381  -48.5453  -59.4513 C.2       9 UNK         0.5014 
     29 O          24.7506  -48.5455  -60.0307 O.2       9 UNK        -0.5270 
     30 CA         26.6313  -49.8598  -59.3520 C.3       8 UNK         0.0284 
     31 CB         27.9115  -49.8129  -60.2038 C.3       8 UNK        -0.1977 
     32 N          26.9580  -50.2016  -57.9672 N.am      8 UNK        -0.4342 
     33 C          26.0623  -50.6229  -57.0625 C.2       8 UNK         0.5039 
     34 O          24.8779  -50.8433  -57.3197 O.2       8 UNK        -0.5547 
     35 CA         26.5638  -50.8345  -55.6236 C.3       7 UNK         0.0281 
     36 CB         27.1265  -52.2545  -55.4526 C.3       7 UNK        -0.1963 
     37 N          27.5699  -49.8507  -55.2169 N.am      7 UNK        -0.4444 
     38 C          27.3333  -48.5381  -55.0753 C.2       7 UNK         0.5104 
     39 O          26.2216  -48.0248  -55.1985 O.2       7 UNK        -0.5100 
     40 CA         28.5497  -47.6400  -54.7932 C.3       6 UNK         0.0396 
     41 CB         28.8959  -47.6341  -53.2973 C.3       6 UNK        -0.1801 
     42 N          29.7299  -48.0154  -55.5732 N.am      6 UNK        -0.4747 
     43 C          29.7974  -47.9885  -56.9138 C.2       6 UNK         0.5012 
     44 O          28.8697  -47.6324  -57.6372 O.2       6 UNK        -0.5003 
     45 CA         31.0927  -48.5079  -57.5676 C.3       5 UNK         0.0782 
     46 C46        32.1854  -47.4279  -57.8156 C.3       11 UNK        -0.0868 
     47 S47        32.4182  -46.1699  -56.5106 S.3       11 UNK        -0.2515 
     48 C48        31.4905  -44.7707  -57.2350 C.3       11 UNK         0.0199 
     49 N          31.5902  -49.6965  -56.8698 N.am      5 UNK        -0.4607 
     50 C          30.9916  -50.8949  -56.9573 C.2       4 UNK         0.5031 
     51 O          29.9892  -51.1077  -57.6407 O.2       4 UNK        -0.5119 
     52 CA         31.5890  -52.0416  -56.1275 C.3       4 UNK         0.0263 
     53 CB         32.8226  -52.6336  -56.8278 C.3       4 UNK        -0.1967 
     54 N          31.9411  -51.6364  -54.7663 N.am      4 UNK        -0.4237 
     55 C          31.0576  -51.2369  -53.8402 C.2       3 UNK         0.4908 
     56 O          29.8431  -51.1812  -54.0266 O.2       3 UNK        -0.5102 
     57 CA         31.6315  -50.7861  -52.4873 C.3       3 UNK         0.0241 
     58 CB         31.8256  -51.9914  -51.5534 C.3       3 UNK        -0.1971 
     59 N          32.8906  -50.0432  -52.6052 N.am      3 UNK        -0.4139 
     60 C          33.0269  -48.8871  -53.2687 C.2       2 UNK         0.5016 
     61 O          32.1152  -48.3437  -53.8956 O.2       2 UNK        -0.5319 
     62 CA         34.4236  -48.2486  -53.2652 C.3       2 UNK         0.0286 
     63 CB         35.1086  -48.4395  -54.6285 C.3       2 UNK        -0.1963 
     64 N          34.3406  -46.8206  -52.9538 N.am      2 UNK        -0.4790 
     65 C          34.0724  -46.3408  -51.7318 C.2       1 UNK         0.5024 
     66 O          33.9100  -47.0579  -50.7401 O.2       1 UNK        -0.4888 
     67 H67        35.1831  -43.6290  -47.9633 H         1 UNK         0.0892 
     68 H68        36.5869  -44.6980  -47.9872 H         1 UNK         0.0892 
     69 H69        36.7361  -43.0302  -48.5486 H         1 UNK         0.0892 
     70 H70        33.7521  -44.1040  -49.6199 H         1 UNK         0.3107 
     71 H71        34.5687  -44.3520  -52.3672 H         1 UNK         0.0773 
     72 H72        31.8179  -44.8638  -51.1163 H         1 UNK         0.0680 
     73 H73        32.1328  -44.6703  -52.8152 H         1 UNK         0.0680 
     74 H74        33.7973  -42.2919  -53.4500 H         1 UNK         0.0650 
     75 H75        32.8968  -40.8304  -53.1496 H         1 UNK         0.0650 
     76 H76        33.0158  -43.8706  -55.1019 H         1 UNK         0.1397 
     77 H77        29.3780  -43.0757  -57.2386 H         1 UNK         0.1363 
     78 H78        30.4583  -40.6715  -53.8598 H         1 UNK         0.1355 
     79 H79        28.7663  -39.8972  -55.4755 H         1 UNK         0.0707 
     80 H80        28.2911  -40.8652  -56.8398 H         1 UNK         0.0707 
     81 H81        25.2675  -42.5322  -55.9286 H         1 UNK         0.1034 
     82 H82        26.6571  -42.4818  -56.9638 H         1 UNK         0.1034 
     83 H83        27.7164  -44.3519  -55.6041 H         1 UNK         0.0482 
     84 H84        27.8406  -44.3336  -53.2996 H         1 UNK         0.3460 
     85 H85        26.5256  -44.9007  -52.3024 H         1 UNK         0.3460 
     86 H86        25.2735  -45.6090  -56.3851 H         1 UNK         0.2989 
     87 H87        24.7686  -46.2075  -58.4799 H         1 UNK         0.0559 
     88 H88        26.7297  -45.5055  -60.7396 H         1 UNK         0.0848 
     89 H89        25.3976  -44.4758  -60.2341 H         1 UNK         0.0848 
     90 H90        25.0645  -46.0501  -60.9273 H         1 UNK         0.0848 
     91 H91        27.2876  -47.5467  -58.4131 H         1 UNK         0.3144 
     92 H92        26.0014  -50.6573  -59.7526 H         1 UNK         0.0727 
     93 H93        28.4435  -50.7641  -60.1703 H         1 UNK         0.0790 
     94 H94        28.5991  -49.0357  -59.8723 H         1 UNK         0.0790 
     95 H95        27.6738  -49.6107  -61.2489 H         1 UNK         0.0790 
     96 H96        27.9213  -50.0852  -57.6780 H         1 UNK         0.3215 
     97 H97        25.7053  -50.7260  -54.9573 H         1 UNK         0.0863 
     98 H98        27.3904  -52.4532  -54.4137 H         1 UNK         0.0808 
     99 H99        28.0190  -52.4109  -56.0599 H         1 UNK         0.0808 
    100 H100       26.3925  -53.0050  -55.7491 H         1 UNK         0.0808 
    101 H101       28.5018  -50.2054  -55.0157 H         1 UNK         0.3118 
    102 H102       28.2852  -46.6229  -55.0832 H         1 UNK         0.0546 
    103 H103       28.0374  -47.3270  -52.6991 H         1 UNK         0.0828 
    104 H104       29.7088  -46.9401  -53.0820 H         1 UNK         0.0828 
    105 H105       29.1990  -48.6219  -52.9508 H         1 UNK         0.0828 
    106 H106       30.5644  -48.2689  -55.0477 H         1 UNK         0.3005 
    107 H107       30.7960  -48.8486  -58.5631 H         1 UNK         0.1257 
    108 H108       31.9589  -46.9058  -58.7468 H         1 UNK         0.0775 
    109 H109       33.1485  -47.9078  -57.9959 H         1 UNK         0.0775 
    110 H110       32.0430  -44.3831  -58.0918 H         1 UNK         0.0840 
    111 H111       30.5409  -45.1472  -57.6202 H         1 UNK         0.0840 
    112 H112       32.3686  -49.5673  -56.2405 H         1 UNK         0.2987 
    113 H113       30.8304  -52.8242  -56.0553 H         1 UNK         0.0785 
    114 H114       32.5775  -52.9558  -57.8409 H         1 UNK         0.0798 
    115 H115       33.1998  -53.5070  -56.2953 H         1 UNK         0.0798 
    116 H116       33.6346  -51.9093  -56.9038 H         1 UNK         0.0798 
    117 H117       32.9200  -51.6502  -54.5210 H         1 UNK         0.3079 
    118 H118       30.8999  -50.1175  -52.0294 H         1 UNK         0.0794 
    119 H119       32.5748  -52.6857  -51.9361 H         1 UNK         0.0786 
    120 H120       30.8944  -52.5482  -51.4377 H         1 UNK         0.0786 
    121 H121       32.1367  -51.6758  -50.5574 H         1 UNK         0.0786 
    122 H122       33.6877  -50.4239  -52.1153 H         1 UNK         0.3032 
    123 H123       35.0380  -48.7321  -52.5019 H         1 UNK         0.1094 
    124 H124       34.5440  -47.9728  -55.4359 H         1 UNK         0.0794 
    125 H125       36.1114  -48.0121  -54.6315 H         1 UNK         0.0794 
    126 H126       35.2086  -49.4981  -54.8714 H         1 UNK         0.0794 
    127 H127       34.4044  -46.1846  -53.7354 H         1 UNK         0.3016 
@<TRIPOS>BOND
     1    1    2 1    
     2    1   67 1    
     3    1   68 1    
     4    1   69 1    
     5    2    3 2    
     6    2    4 am   BACKBONE|DICT|INTERRES
     7    4    5 1    
     8    4   70 1    
     9    5    6 1    
    10    5   65 1    
    11    5   71 1    
    12    6    7 1    
    13    6   72 1    
    14    6   73 1    
    15    7    8 1    
    16    8    9 1    
    17    8   74 1    
    18    8   75 1    
    19    9   10 ar   
    20    9   14 ar   
    21   10   11 ar   
    22   10   76 1    
    23   11   12 ar   
    24   11   48 1    
    25   12   13 ar   
    26   12   77 1    
    27   13   14 ar   
    28   13   15 1    
    29   14   78 1    
    30   15   16 1    
    31   15   79 1    
    32   15   80 1    
    33   16   17 1    
    34   17   18 1    
    35   17   81 1    
    36   17   82 1    
    37   18   19 1    
    38   18   22 1    
    39   18   83 1    
    40   19   20 am   BACKBONE|DICT|INTERRES
    41   19   21 2    
    42   20   84 1    
    43   20   85 1    
    44   22   23 am   BACKBONE|DICT|INTERRES
    45   22   86 1    
    46   23   24 2    
    47   23   25 1    
    48   25   26 1    
    49   25   27 1    
    50   25   87 1    
    51   26   88 1    
    52   26   89 1    
    53   26   90 1    
    54   27   28 am   BACKBONE|DICT|INTERRES
    55   27   91 1    
    56   28   29 2    
    57   28   30 1    
    58   30   31 1    
    59   30   32 1    
    60   30   92 1    
    61   31   93 1    
    62   31   94 1    
    63   31   95 1    
    64   32   33 am   BACKBONE|DICT|INTERRES
    65   32   96 1    
    66   33   34 2    
    67   33   35 1    
    68   35   36 1    
    69   35   37 1    
    70   35   97 1    
    71   36   98 1    
    72   36   99 1    
    73   36  100 1    
    74   37   38 am   BACKBONE|DICT|INTERRES
    75   37  101 1    
    76   38   39 2    
    77   38   40 1    
    78   40   41 1    
    79   40   42 1    
    80   40  102 1    
    81   41  103 1    
    82   41  104 1    
    83   41  105 1    
    84   42   43 am   BACKBONE|DICT|INTERRES
    85   42  106 1    
    86   43   44 2    
    87   43   45 1    
    88   45   46 1    
    89   45   49 1    
    90   45  107 1    
    91   46   47 1    
    92   46  108 1    
    93   46  109 1    
    94   47   48 1    
    95   48  110 1    
    96   48  111 1    
    97   49   50 am   BACKBONE|DICT|INTERRES
    98   49  112 1    
    99   50   51 2    
   100   50   52 1    
   101   52   53 1    
   102   52   54 1    
   103   52  113 1    
   104   53  114 1    
   105   53  115 1    
   106   53  116 1    
   107   54   55 am   BACKBONE|DICT|INTERRES
   108   54  117 1    
   109   55   56 2    
   110   55   57 1    
   111   57   58 1    
   112   57   59 1    
   113   57  118 1    
   114   58  119 1    
   115   58  120 1    
   116   58  121 1    
   117   59   60 am   BACKBONE|DICT|INTERRES
   118   59  122 1    
   119   60   61 2    
   120   60   62 1    
   121   62   63 1    
   122   62   64 1    
   123   62  123 1    
   124   63  124 1    
   125   63  125 1    
   126   63  126 1    
   127   64   65 am   BACKBONE|DICT|INTERRES
   128   64  127 1    
   129   65   66 2    
@<TRIPOS>SUBSTRUCTURE
     1 UNK         1 GROUP             0       ****    0 ROOT    
