@<TRIPOS>MOLECULE
3R134
127   129    1
SMALL
USER_CHARGES


@<TRIPOS>ATOM
      1 CA         29.3510  -46.1196  -53.7733 C.3       0 UNK        -0.1968 
      2 C          30.7851  -46.0857  -53.2804 C.2       0 UNK         0.4852 
      3 O          31.6644  -46.6753  -53.9112 O.2       0 UNK        -0.5359 
      4 N          31.0020  -45.4271  -52.1343 N.am      1 UNK        -0.4300 
      5 CA         32.2815  -45.3099  -51.4243 C.3       1 UNK         0.0863 
      6 C6         33.3187  -44.4391  -52.1904 C.3       11 UNK        -0.0953 
      7 S7         32.7074  -42.7345  -52.4190 S.3       11 UNK        -0.2369 
      8 C8         33.6352  -42.1908  -53.8848 C.3       11 UNK         0.0226 
      9 C9         32.9609  -42.6034  -55.1859 C.ar      11 UNK        -0.0699 
     10 C10        33.4337  -43.6995  -55.9118 C.ar      11 UNK        -0.0804 
     11 C11        32.8631  -44.0353  -57.1432 C.ar      11 UNK        -0.0871 
     12 C12        31.7948  -43.2796  -57.6386 C.ar      11 UNK        -0.1008 
     13 C13        31.3163  -42.1746  -56.9265 C.ar      11 UNK        -0.0735 
     14 C14        31.9038  -41.8452  -55.6994 C.ar      11 UNK        -0.0945 
     15 C15        30.2431  -41.2764  -57.5338 C.3       11 UNK         0.0169 
     16 S16        28.8338  -40.9683  -56.4193 S.3       11 UNK        -0.2669 
     17 C17        27.7054  -42.3580  -56.7858 C.3       11 UNK        -0.0850 
     18 CA         27.6720  -43.4589  -55.6903 C.3       10 UNK         0.0855 
     19 C          27.1499  -42.9274  -54.3196 C.2       10 UNK         0.5543 
     20 N          25.8475  -42.9061  -54.0759 N.am      10 UNK        -0.7343 
     21 O          27.9412  -42.5642  -53.4539 O.2       10 UNK        -0.5027 
     22 N          27.0106  -44.6912  -56.1662 N.am      10 UNK        -0.4495 
     23 C          25.7374  -44.8369  -56.5654 C.2       10 UNK         0.4903 
     24 O          24.9126  -43.9230  -56.5882 O.2       10 UNK        -0.4860 
     25 CA         25.3015  -46.2385  -57.0225 C.3       9 UNK         0.0227 
     26 CB         25.4654  -46.3613  -58.5440 C.3       9 UNK        -0.1964 
     27 N          26.0469  -47.3130  -56.3614 N.am      9 UNK        -0.4231 
     28 C          25.8230  -47.7355  -55.1100 C.2       9 UNK         0.5014 
     29 O          24.9342  -47.2822  -54.3862 O.2       9 UNK        -0.5270 
     30 CA         26.7651  -48.8365  -54.5823 C.3       8 UNK         0.0284 
     31 CB         26.3990  -49.3284  -53.1664 C.3       8 UNK        -0.1977 
     32 N          26.9206  -49.9659  -55.5025 N.am      8 UNK        -0.4342 
     33 C          25.9722  -50.7844  -55.9768 C.2       8 UNK         0.5039 
     34 O          24.7780  -50.7185  -55.6791 O.2       8 UNK        -0.5547 
     35 CA         26.4760  -51.8591  -56.9595 C.3       7 UNK         0.0281 
     36 CB         25.3423  -52.7031  -57.5822 C.3       7 UNK        -0.1963 
     37 N          27.3495  -51.2830  -57.9915 N.am      7 UNK        -0.4444 
     38 C          27.0119  -50.3799  -58.9253 C.2       7 UNK         0.5104 
     39 O          25.8684  -49.9583  -59.1013 O.2       7 UNK        -0.5100 
     40 CA         28.1716  -49.8521  -59.7947 C.3       6 UNK         0.0396 
     41 CB         27.7570  -48.6948  -60.7259 C.3       6 UNK        -0.1801 
     42 N          29.3604  -49.4804  -59.0149 N.am      6 UNK        -0.4747 
     43 C          29.4278  -48.6106  -57.9936 C.2       6 UNK         0.5012 
     44 O          28.4669  -47.9833  -57.5434 O.2       6 UNK        -0.5003 
     45 CA         30.8190  -48.4064  -57.3655 C.3       5 UNK         0.0782 
     46 C46        31.3302  -46.9801  -57.6726 C.3       11 UNK        -0.0868 
     47 S47        33.0888  -46.8000  -57.2472 S.3       11 UNK        -0.2515 
     48 C48        33.4535  -45.1721  -57.9651 C.3       11 UNK         0.0199 
     49 N          30.8570  -48.6926  -55.9252 N.am      5 UNK        -0.4607 
     50 C          30.3917  -49.7848  -55.3027 C.2       4 UNK         0.5031 
     51 O          29.7291  -50.6672  -55.8540 O.2       4 UNK        -0.5119 
     52 CA         30.7440  -49.9039  -53.8065 C.3       4 UNK         0.0263 
     53 CB         30.3054  -51.2468  -53.1851 C.3       4 UNK        -0.1967 
     54 N          32.1686  -49.6413  -53.5550 N.am      4 UNK        -0.4237 
     55 C          33.2187  -50.3130  -54.0575 C.2       3 UNK         0.4908 
     56 O          33.1202  -51.3263  -54.7506 O.2       3 UNK        -0.5102 
     57 CA         34.6273  -49.7640  -53.7640 C.3       3 UNK         0.0241 
     58 CB         35.2010  -49.0577  -55.0024 C.3       3 UNK        -0.1971 
     59 N          34.6740  -48.8356  -52.6338 N.am      3 UNK        -0.4139 
     60 C          34.7314  -49.2021  -51.3468 C.2       2 UNK         0.5016 
     61 O          34.7616  -50.3731  -50.9666 O.2       2 UNK        -0.5319 
     62 CA         34.7653  -48.0685  -50.3046 C.3       2 UNK         0.0286 
     63 CB         36.2139  -47.7647  -49.8887 C.3       2 UNK        -0.1963 
     64 N          34.1233  -46.8274  -50.7577 N.am      2 UNK        -0.4790 
     65 C          32.8066  -46.6965  -50.9741 C.2       1 UNK         0.5024 
     66 O          32.0116  -47.6247  -50.8024 O.2       1 UNK        -0.4888 
     67 H67        28.8582  -45.1688  -53.5850 H         1 UNK         0.0892 
     68 H68        29.3122  -46.3285  -54.8419 H         1 UNK         0.0892 
     69 H69        28.8023  -46.8913  -53.2370 H         1 UNK         0.0892 
     70 H70        30.2194  -44.9921  -51.6671 H         1 UNK         0.3107 
     71 H71        32.0510  -44.7927  -50.4917 H         1 UNK         0.0773 
     72 H72        33.5542  -44.8810  -53.1597 H         1 UNK         0.0680 
     73 H73        34.2594  -44.3594  -51.6444 H         1 UNK         0.0680 
     74 H74        33.7201  -41.1035  -53.8556 H         1 UNK         0.0650 
     75 H75        34.6559  -42.5734  -53.8361 H         1 UNK         0.0650 
     76 H76        34.2641  -44.2793  -55.5328 H         1 UNK         0.1397 
     77 H77        31.3652  -43.5260  -58.6001 H         1 UNK         0.1363 
     78 H78        31.5534  -40.9798  -55.1534 H         1 UNK         0.1355 
     79 H79        30.7043  -40.3159  -57.7675 H         1 UNK         0.0707 
     80 H80        29.8841  -41.6730  -58.4846 H         1 UNK         0.0707 
     81 H81        27.9872  -42.8010  -57.7418 H         1 UNK         0.1034 
     82 H82        26.7064  -41.9464  -56.9390 H         1 UNK         0.1034 
     83 H83        28.7089  -43.7549  -55.5244 H         1 UNK         0.0482 
     84 H84        25.2072  -43.2034  -54.8035 H         1 UNK         0.3460 
     85 H85        25.5035  -42.5766  -53.1882 H         1 UNK         0.3460 
     86 H86        27.5938  -45.5141  -56.1900 H         1 UNK         0.2989 
     87 H87        24.2421  -46.3562  -56.7853 H         1 UNK         0.0559 
     88 H88        24.8547  -45.6213  -59.0630 H         1 UNK         0.0848 
     89 H89        25.1564  -47.3436  -58.9011 H         1 UNK         0.0848 
     90 H90        26.4998  -46.1984  -58.8472 H         1 UNK         0.0848 
     91 H91        26.8326  -47.7103  -56.8772 H         1 UNK         0.3144 
     92 H92        27.7516  -48.3822  -54.5272 H         1 UNK         0.0727 
     93 H93        27.1179  -50.0616  -52.8015 H         1 UNK         0.0790 
     94 H94        25.4101  -49.7875  -53.1425 H         1 UNK         0.0790 
     95 H95        26.3912  -48.5018  -52.4548 H         1 UNK         0.0790 
     96 H96        27.8709  -50.1385  -55.8216 H         1 UNK         0.3215 
     97 H97        27.1005  -52.5356  -56.3733 H         1 UNK         0.0863 
     98 H98        25.7364  -53.4572  -58.2633 H         1 UNK         0.0808 
     99 H99        24.6313  -52.0889  -58.1353 H         1 UNK         0.0808 
    100 H100       24.7802  -53.2274  -56.8085 H         1 UNK         0.0808 
    101 H101       28.3296  -51.5217  -57.9119 H         1 UNK         0.3118 
    102 H102       28.4697  -50.6872  -60.4303 H         1 UNK         0.0546 
    103 H103       27.4626  -47.8108  -60.1640 H         1 UNK         0.0828 
    104 H104       26.9128  -48.9781  -61.3557 H         1 UNK         0.0828 
    105 H105       28.5727  -48.4103  -61.3902 H         1 UNK         0.0828 
    106 H106       30.2105  -49.9542  -59.2891 H         1 UNK         0.3005 
    107 H107       31.5034  -49.1184  -57.8312 H         1 UNK         0.1257 
    108 H108       31.2154  -46.7454  -58.7330 H         1 UNK         0.0775 
    109 H109       30.7540  -46.2327  -57.1231 H         1 UNK         0.0775 
    110 H110       34.5364  -45.0487  -58.0149 H         1 UNK         0.0840 
    111 H111       33.0996  -45.1378  -58.9967 H         1 UNK         0.0840 
    112 H112       31.3549  -48.0066  -55.3634 H         1 UNK         0.2987 
    113 H113       30.1908  -49.1153  -53.2959 H         1 UNK         0.0785 
    114 H114       30.5438  -51.2872  -52.1223 H         1 UNK         0.0798 
    115 H115       30.7867  -52.0966  -53.6698 H         1 UNK         0.0798 
    116 H116       29.2284  -51.3883  -53.2817 H         1 UNK         0.0798 
    117 H117       32.3591  -48.7965  -53.0306 H         1 UNK         0.3079 
    118 H118       35.2653  -50.6222  -53.5412 H         1 UNK         0.0794 
    119 H119       35.1452  -49.6963  -55.8852 H         1 UNK         0.0786 
    120 H120       36.2494  -48.7960  -54.8585 H         1 UNK         0.0786 
    121 H121       34.6561  -48.1411  -55.2257 H         1 UNK         0.0786 
    122 H122       34.6499  -47.8493  -52.8489 H         1 UNK         0.3032 
    123 H123       34.2254  -48.4266  -49.4246 H         1 UNK         0.1094 
    124 H124       36.8038  -47.3841  -50.7235 H         1 UNK         0.0794 
    125 H125       36.2510  -47.0280  -49.0859 H         1 UNK         0.0794 
    126 H126       36.7112  -48.6641  -49.5223 H         1 UNK         0.0794 
    127 H127       34.7244  -46.0270  -50.8934 H         1 UNK         0.3016 
@<TRIPOS>BOND
     1    1    2 1    
     2    1   67 1    
     3    1   68 1    
     4    1   69 1    
     5    2    3 2    
     6    2    4 am   BACKBONE|DICT|INTERRES
     7    4    5 1    
     8    4   70 1    
     9    5    6 1    
    10    5   65 1    
    11    5   71 1    
    12    6    7 1    
    13    6   72 1    
    14    6   73 1    
    15    7    8 1    
    16    8    9 1    
    17    8   74 1    
    18    8   75 1    
    19    9   10 ar   
    20    9   14 ar   
    21   10   11 ar   
    22   10   76 1    
    23   11   12 ar   
    24   11   48 1    
    25   12   13 ar   
    26   12   77 1    
    27   13   14 ar   
    28   13   15 1    
    29   14   78 1    
    30   15   16 1    
    31   15   79 1    
    32   15   80 1    
    33   16   17 1    
    34   17   18 1    
    35   17   81 1    
    36   17   82 1    
    37   18   19 1    
    38   18   22 1    
    39   18   83 1    
    40   19   20 am   BACKBONE|DICT|INTERRES
    41   19   21 2    
    42   20   84 1    
    43   20   85 1    
    44   22   23 am   BACKBONE|DICT|INTERRES
    45   22   86 1    
    46   23   24 2    
    47   23   25 1    
    48   25   26 1    
    49   25   27 1    
    50   25   87 1    
    51   26   88 1    
    52   26   89 1    
    53   26   90 1    
    54   27   28 am   BACKBONE|DICT|INTERRES
    55   27   91 1    
    56   28   29 2    
    57   28   30 1    
    58   30   31 1    
    59   30   32 1    
    60   30   92 1    
    61   31   93 1    
    62   31   94 1    
    63   31   95 1    
    64   32   33 am   BACKBONE|DICT|INTERRES
    65   32   96 1    
    66   33   34 2    
    67   33   35 1    
    68   35   36 1    
    69   35   37 1    
    70   35   97 1    
    71   36   98 1    
    72   36   99 1    
    73   36  100 1    
    74   37   38 am   BACKBONE|DICT|INTERRES
    75   37  101 1    
    76   38   39 2    
    77   38   40 1    
    78   40   41 1    
    79   40   42 1    
    80   40  102 1    
    81   41  103 1    
    82   41  104 1    
    83   41  105 1    
    84   42   43 am   BACKBONE|DICT|INTERRES
    85   42  106 1    
    86   43   44 2    
    87   43   45 1    
    88   45   46 1    
    89   45   49 1    
    90   45  107 1    
    91   46   47 1    
    92   46  108 1    
    93   46  109 1    
    94   47   48 1    
    95   48  110 1    
    96   48  111 1    
    97   49   50 am   BACKBONE|DICT|INTERRES
    98   49  112 1    
    99   50   51 2    
   100   50   52 1    
   101   52   53 1    
   102   52   54 1    
   103   52  113 1    
   104   53  114 1    
   105   53  115 1    
   106   53  116 1    
   107   54   55 am   BACKBONE|DICT|INTERRES
   108   54  117 1    
   109   55   56 2    
   110   55   57 1    
   111   57   58 1    
   112   57   59 1    
   113   57  118 1    
   114   58  119 1    
   115   58  120 1    
   116   58  121 1    
   117   59   60 am   BACKBONE|DICT|INTERRES
   118   59  122 1    
   119   60   61 2    
   120   60   62 1    
   121   62   63 1    
   122   62   64 1    
   123   62  123 1    
   124   63  124 1    
   125   63  125 1    
   126   63  126 1    
   127   64   65 am   BACKBONE|DICT|INTERRES
   128   64  127 1    
   129   65   66 2    
@<TRIPOS>SUBSTRUCTURE
     1 UNK         1 GROUP             0       ****    0 ROOT    
