@<TRIPOS>MOLECULE
3R134
127   129    1
SMALL
USER_CHARGES


@<TRIPOS>ATOM
      1 CA         37.5873  -46.0326  -49.6482 C.3       0 UNK        -0.1968 
      2 C          36.4556  -45.7279  -50.6187 C.2       0 UNK         0.4852 
      3 O          35.6064  -44.8888  -50.3179 O.2       0 UNK        -0.5359 
      4 N          36.4346  -46.4133  -51.7726 N.am      1 UNK        -0.4300 
      5 CA         35.4548  -46.2726  -52.8639 C.3       1 UNK         0.0863 
      6 C6         35.3979  -44.8268  -53.4314 C.3       11 UNK        -0.0953 
      7 S7         35.1331  -44.7704  -55.2338 S.3       11 UNK        -0.2369 
      8 C8         34.2449  -43.1927  -55.4064 C.3       11 UNK         0.0226 
      9 C9         32.7369  -43.3665  -55.2963 C.ar      11 UNK        -0.0699 
     10 C10        32.0934  -43.2766  -54.0574 C.ar      11 UNK        -0.0804 
     11 C11        30.7014  -43.3869  -53.9645 C.ar      11 UNK        -0.0871 
     12 C12        29.9547  -43.5760  -55.1329 C.ar      11 UNK        -0.1008 
     13 C13        30.5878  -43.6836  -56.3748 C.ar      11 UNK        -0.0735 
     14 C14        31.9785  -43.5802  -56.4501 C.ar      11 UNK        -0.0945 
     15 C15        29.7661  -43.9042  -57.6331 C.3       11 UNK         0.0169 
     16 S16        28.8895  -42.3808  -58.1094 S.3       11 UNK        -0.2669 
     17 C17        27.9129  -42.9426  -59.5459 C.3       11 UNK        -0.0850 
     18 CA         26.4729  -43.3679  -59.1529 C.3       10 UNK         0.0855 
     19 C          25.5793  -43.5718  -60.4124 C.2       10 UNK         0.5543 
     20 N          25.0292  -44.7536  -60.6679 N.am      10 UNK        -0.7343 
     21 O          25.3750  -42.6292  -61.1732 O.2       10 UNK        -0.5027 
     22 N          26.5006  -44.5194  -58.2428 N.am      10 UNK        -0.4495 
     23 C          25.5424  -44.8633  -57.3766 C.2       10 UNK         0.4903 
     24 O          24.5281  -44.1946  -57.1732 O.2       10 UNK        -0.4860 
     25 CA         25.7705  -46.1864  -56.6140 C.3       9 UNK         0.0227 
     26 CB         24.4526  -46.8279  -56.1330 C.3       9 UNK        -0.1964 
     27 N          26.5793  -47.1712  -57.3522 N.am      9 UNK        -0.4231 
     28 C          26.3191  -47.6739  -58.5705 C.2       9 UNK         0.5014 
     29 O          25.3541  -47.3466  -59.2624 O.2       9 UNK        -0.5270 
     30 CA         27.3236  -48.6880  -59.1263 C.3       8 UNK         0.0284 
     31 CB         28.5396  -47.9696  -59.7379 C.3       8 UNK        -0.1977 
     32 N          27.7619  -49.6262  -58.0912 N.am      8 UNK        -0.4342 
     33 C          27.1741  -50.8075  -57.8629 C.2       8 UNK         0.5039 
     34 O          26.1956  -51.2202  -58.4878 O.2       8 UNK        -0.5547 
     35 CA         27.7996  -51.7027  -56.7853 C.3       7 UNK         0.0281 
     36 CB         29.0977  -52.3417  -57.3066 C.3       7 UNK        -0.1963 
     37 N          28.0549  -51.0142  -55.5175 N.am      7 UNK        -0.4444 
     38 C          27.1003  -50.7197  -54.6225 C.2       7 UNK         0.5104 
     39 O          25.8961  -50.8729  -54.8298 O.2       7 UNK        -0.5100 
     40 CA         27.5639  -50.2182  -53.2440 C.3       6 UNK         0.0396 
     41 CB         28.2449  -51.3465  -52.4516 C.3       6 UNK        -0.1801 
     42 N          28.4676  -49.0751  -53.3398 N.am      6 UNK        -0.4747 
     43 C          28.0792  -47.8198  -53.6000 C.2       6 UNK         0.5012 
     44 O          26.9010  -47.4819  -53.7055 O.2       6 UNK        -0.5003 
     45 CA         29.1926  -46.7711  -53.8143 C.3       5 UNK         0.0782 
     46 C46        29.5978  -46.0585  -52.4970 C.3       11 UNK        -0.0868 
     47 S47        28.7034  -44.4838  -52.2928 S.3       11 UNK        -0.2515 
     48 C48        30.0217  -43.2554  -52.6016 C.3       11 UNK         0.0199 
     49 N          30.3558  -47.3170  -54.5146 N.am      5 UNK        -0.4607 
     50 C          30.3273  -47.8133  -55.7573 C.2       4 UNK         0.5031 
     51 O          29.3176  -47.8445  -56.4628 O.2       4 UNK        -0.5119 
     52 CA         31.6361  -48.4213  -56.2786 C.3       4 UNK         0.0263 
     53 CB         32.5546  -47.3206  -56.8310 C.3       4 UNK        -0.1967 
     54 N          32.3350  -49.1846  -55.2400 N.am      4 UNK        -0.4237 
     55 C          31.8813  -50.3350  -54.7191 C.2       3 UNK         0.4908 
     56 O          30.8511  -50.8946  -55.0899 O.2       3 UNK        -0.5102 
     57 CA         32.6779  -50.9364  -53.5504 C.3       3 UNK         0.0241 
     58 CB         33.9502  -51.6358  -54.0553 C.3       3 UNK        -0.1971 
     59 N          33.0266  -49.9389  -52.5372 N.am      3 UNK        -0.4139 
     60 C          32.1371  -49.2459  -51.8109 C.2       2 UNK         0.5016 
     61 O          30.9209  -49.4146  -51.8732 O.2       2 UNK        -0.5319 
     62 CA         32.6920  -48.1487  -50.8886 C.3       2 UNK         0.0286 
     63 CB         32.9228  -48.6996  -49.4730 C.3       2 UNK        -0.1963 
     64 N          33.9298  -47.5348  -51.3796 N.am      2 UNK        -0.4790 
     65 C          34.0558  -46.8488  -52.5268 C.2       1 UNK         0.5024 
     66 O          33.1249  -46.7116  -53.3225 O.2       1 UNK        -0.4888 
     67 H67        38.2614  -46.7980  -50.0323 H         1 UNK         0.0892 
     68 H68        37.1835  -46.3822  -48.6983 H         1 UNK         0.0892 
     69 H69        38.1707  -45.1319  -49.4592 H         1 UNK         0.0892 
     70 H70        37.1642  -47.0923  -51.9453 H         1 UNK         0.3107 
     71 H71        35.8416  -46.9231  -53.6498 H         1 UNK         0.0773 
     72 H72        34.6451  -44.2347  -52.9106 H         1 UNK         0.0680 
     73 H73        36.3443  -44.3138  -53.2535 H         1 UNK         0.0680 
     74 H74        34.6030  -42.4779  -54.6638 H         1 UNK         0.0650 
     75 H75        34.4941  -42.7628  -56.3777 H         1 UNK         0.0650 
     76 H76        32.6766  -43.1042  -53.1642 H         1 UNK         0.1397 
     77 H77        28.8764  -43.6361  -55.0795 H         1 UNK         0.1363 
     78 H78        32.4722  -43.6518  -57.4096 H         1 UNK         0.1355 
     79 H79        30.4015  -44.2296  -58.4584 H         1 UNK         0.0707 
     80 H80        29.0582  -44.7122  -57.4505 H         1 UNK         0.0707 
     81 H81        28.4341  -43.7524  -60.0599 H         1 UNK         0.1034 
     82 H82        27.8836  -42.1114  -60.2534 H         1 UNK         0.1034 
     83 H83        26.0227  -42.5338  -58.6109 H         1 UNK         0.0482 
     84 H84        25.1739  -45.5494  -60.0546 H         1 UNK         0.3460 
     85 H85        24.4516  -44.8568  -61.4868 H         1 UNK         0.3460 
     86 H86        27.2784  -45.1495  -58.3547 H         1 UNK         0.2989 
     87 H87        26.3512  -45.9159  -55.7325 H         1 UNK         0.0559 
     88 H88        24.6426  -47.7431  -55.5716 H         1 UNK         0.0848 
     89 H89        23.7949  -47.0746  -56.9670 H         1 UNK         0.0848 
     90 H90        23.9054  -46.1543  -55.4725 H         1 UNK         0.0848 
     91 H91        27.4363  -47.4731  -56.8956 H         1 UNK         0.3144 
     92 H92        26.8302  -49.2358  -59.9324 H         1 UNK         0.0727 
     93 H93        29.2469  -48.6830  -60.1610 H         1 UNK         0.0790 
     94 H94        29.0752  -47.3629  -59.0079 H         1 UNK         0.0790 
     95 H95        28.2301  -47.3049  -60.5457 H         1 UNK         0.0790 
     96 H96        28.5167  -49.3178  -57.4860 H         1 UNK         0.3215 
     97 H97        27.0949  -52.5138  -56.5873 H         1 UNK         0.0863 
     98 H98        29.5161  -53.0383  -56.5798 H         1 UNK         0.0808 
     99 H99        29.8593  -51.5929  -57.5275 H         1 UNK         0.0808 
    100 H100       28.9157  -52.9018  -58.2248 H         1 UNK         0.0808 
    101 H101       29.0328  -50.8709  -55.2682 H         1 UNK         0.3118 
    102 H102       26.6775  -49.9117  -52.6843 H         1 UNK         0.0546 
    103 H103       27.5909  -52.2152  -52.3661 H         1 UNK         0.0828 
    104 H104       28.4906  -51.0240  -51.4396 H         1 UNK         0.0828 
    105 H105       29.1696  -51.6772  -52.9262 H         1 UNK         0.0828 
    106 H106       29.4540  -49.2544  -53.1722 H         1 UNK         0.3005 
    107 H107       28.7702  -46.0344  -54.4998 H         1 UNK         0.1257 
    108 H108       30.6672  -45.8427  -52.4847 H         1 UNK         0.0775 
    109 H109       29.4244  -46.6865  -51.6207 H         1 UNK         0.0775 
    110 H110       29.5917  -42.2562  -52.5239 H         1 UNK         0.0840 
    111 H111       30.7563  -43.3355  -51.7986 H         1 UNK         0.0840 
    112 H112       31.2429  -47.2850  -54.0245 H         1 UNK         0.2987 
    113 H113       31.3871  -49.1036  -57.0944 H         1 UNK         0.0785 
    114 H114       32.8279  -46.5983  -56.0607 H         1 UNK         0.0798 
    115 H115       32.0608  -46.7668  -57.6307 H         1 UNK         0.0798 
    116 H116       33.4739  -47.7364  -57.2433 H         1 UNK         0.0798 
    117 H117       33.1591  -48.7594  -54.8407 H         1 UNK         0.3079 
    118 H118       32.0439  -51.6862  -53.0720 H         1 UNK         0.0794 
    119 H119       34.6474  -50.9338  -54.5144 H         1 UNK         0.0786 
    120 H120       33.7074  -52.3911  -54.8043 H         1 UNK         0.0786 
    121 H121       34.4712  -52.1440  -53.2437 H         1 UNK         0.0786 
    122 H122       34.0065  -49.7351  -52.4074 H         1 UNK         0.3032 
    123 H123       31.9348  -47.3639  -50.8311 H         1 UNK         0.1094 
    124 H124       33.6923  -49.4725  -49.4590 H         1 UNK         0.0794 
    125 H125       33.2252  -47.9104  -48.7842 H         1 UNK         0.0794 
    126 H126       32.0089  -49.1422  -49.0736 H         1 UNK         0.0794 
    127 H127       34.7391  -47.5983  -50.7794 H         1 UNK         0.3016 
@<TRIPOS>BOND
     1    1    2 1    
     2    1   67 1    
     3    1   68 1    
     4    1   69 1    
     5    2    3 2    
     6    2    4 am   BACKBONE|DICT|INTERRES
     7    4    5 1    
     8    4   70 1    
     9    5    6 1    
    10    5   65 1    
    11    5   71 1    
    12    6    7 1    
    13    6   72 1    
    14    6   73 1    
    15    7    8 1    
    16    8    9 1    
    17    8   74 1    
    18    8   75 1    
    19    9   10 ar   
    20    9   14 ar   
    21   10   11 ar   
    22   10   76 1    
    23   11   12 ar   
    24   11   48 1    
    25   12   13 ar   
    26   12   77 1    
    27   13   14 ar   
    28   13   15 1    
    29   14   78 1    
    30   15   16 1    
    31   15   79 1    
    32   15   80 1    
    33   16   17 1    
    34   17   18 1    
    35   17   81 1    
    36   17   82 1    
    37   18   19 1    
    38   18   22 1    
    39   18   83 1    
    40   19   20 am   BACKBONE|DICT|INTERRES
    41   19   21 2    
    42   20   84 1    
    43   20   85 1    
    44   22   23 am   BACKBONE|DICT|INTERRES
    45   22   86 1    
    46   23   24 2    
    47   23   25 1    
    48   25   26 1    
    49   25   27 1    
    50   25   87 1    
    51   26   88 1    
    52   26   89 1    
    53   26   90 1    
    54   27   28 am   BACKBONE|DICT|INTERRES
    55   27   91 1    
    56   28   29 2    
    57   28   30 1    
    58   30   31 1    
    59   30   32 1    
    60   30   92 1    
    61   31   93 1    
    62   31   94 1    
    63   31   95 1    
    64   32   33 am   BACKBONE|DICT|INTERRES
    65   32   96 1    
    66   33   34 2    
    67   33   35 1    
    68   35   36 1    
    69   35   37 1    
    70   35   97 1    
    71   36   98 1    
    72   36   99 1    
    73   36  100 1    
    74   37   38 am   BACKBONE|DICT|INTERRES
    75   37  101 1    
    76   38   39 2    
    77   38   40 1    
    78   40   41 1    
    79   40   42 1    
    80   40  102 1    
    81   41  103 1    
    82   41  104 1    
    83   41  105 1    
    84   42   43 am   BACKBONE|DICT|INTERRES
    85   42  106 1    
    86   43   44 2    
    87   43   45 1    
    88   45   46 1    
    89   45   49 1    
    90   45  107 1    
    91   46   47 1    
    92   46  108 1    
    93   46  109 1    
    94   47   48 1    
    95   48  110 1    
    96   48  111 1    
    97   49   50 am   BACKBONE|DICT|INTERRES
    98   49  112 1    
    99   50   51 2    
   100   50   52 1    
   101   52   53 1    
   102   52   54 1    
   103   52  113 1    
   104   53  114 1    
   105   53  115 1    
   106   53  116 1    
   107   54   55 am   BACKBONE|DICT|INTERRES
   108   54  117 1    
   109   55   56 2    
   110   55   57 1    
   111   57   58 1    
   112   57   59 1    
   113   57  118 1    
   114   58  119 1    
   115   58  120 1    
   116   58  121 1    
   117   59   60 am   BACKBONE|DICT|INTERRES
   118   59  122 1    
   119   60   61 2    
   120   60   62 1    
   121   62   63 1    
   122   62   64 1    
   123   62  123 1    
   124   63  124 1    
   125   63  125 1    
   126   63  126 1    
   127   64   65 am   BACKBONE|DICT|INTERRES
   128   64  127 1    
   129   65   66 2    
@<TRIPOS>SUBSTRUCTURE
     1 UNK         1 GROUP             0       ****    0 ROOT    
