@<TRIPOS>MOLECULE
3R134
127   129    1
SMALL
USER_CHARGES


@<TRIPOS>ATOM
      1 CA         30.7360  -46.4711  -52.5960 C.3       0 UNK        -0.1968 
      2 C          32.0589  -46.0661  -51.9631 C.2       0 UNK         0.4852 
      3 O          32.2567  -46.2892  -50.7676 O.2       0 UNK        -0.5359 
      4 N          32.9600  -45.4591  -52.7466 N.am      1 UNK        -0.4300 
      5 CA         34.2733  -44.9828  -52.3043 C.3       1 UNK         0.0863 
      6 C6         34.8653  -43.9361  -53.2814 C.3       11 UNK        -0.0953 
      7 S7         33.9228  -42.3749  -53.2450 S.3       11 UNK        -0.2369 
      8 C8         33.5020  -42.1268  -54.9985 C.3       11 UNK         0.0226 
      9 C9         32.4310  -43.0925  -55.4856 C.ar      11 UNK        -0.0699 
     10 C10        32.7317  -44.0446  -56.4649 C.ar      11 UNK        -0.0804 
     11 C11        31.7401  -44.9068  -56.9410 C.ar      11 UNK        -0.0871 
     12 C12        30.4442  -44.8158  -56.4256 C.ar      11 UNK        -0.1008 
     13 C13        30.1289  -43.8685  -55.4483 C.ar      11 UNK        -0.0735 
     14 C14        31.1277  -43.0075  -54.9836 C.ar      11 UNK        -0.0945 
     15 C15        28.7140  -43.7859  -54.8906 C.3       11 UNK         0.0169 
     16 S16        27.4890  -43.4624  -56.1990 S.3       11 UNK        -0.2669 
     17 C17        25.9481  -43.3741  -55.2265 C.3       11 UNK        -0.0850 
     18 CA         25.1607  -44.7179  -55.1894 C.3       10 UNK         0.0855 
     19 C          23.9509  -44.6773  -54.2064 C.2       10 UNK         0.5543 
     20 N          22.8724  -45.4097  -54.4572 N.am      10 UNK        -0.7343 
     21 O          23.9975  -43.9979  -53.1837 O.2       10 UNK        -0.5027 
     22 N          24.8383  -45.2688  -56.5207 N.am      10 UNK        -0.4495 
     23 C          24.0909  -44.6824  -57.4663 C.2       10 UNK         0.4903 
     24 O          23.6141  -43.5512  -57.3576 O.2       10 UNK        -0.4860 
     25 CA         23.7868  -45.5183  -58.7289 C.3       9 UNK         0.0227 
     26 CB         23.2472  -44.6649  -59.8973 C.3       9 UNK        -0.1964 
     27 N          24.9012  -46.3633  -59.1773 N.am      9 UNK        -0.4231 
     28 C          26.1214  -45.9775  -59.5781 C.2       9 UNK         0.5014 
     29 O          26.4867  -44.8016  -59.6181 O.2       9 UNK        -0.5270 
     30 CA         27.0908  -47.0978  -60.0244 C.3       8 UNK         0.0284 
     31 CB         28.5269  -46.5798  -60.2284 C.3       8 UNK        -0.1977 
     32 N          27.1271  -48.2276  -59.0892 N.am      8 UNK        -0.4342 
     33 C          26.1874  -49.1791  -58.9710 C.2       8 UNK         0.5039 
     34 O          25.1932  -49.2365  -59.6955 O.2       8 UNK        -0.5547 
     35 CA         26.3292  -50.1888  -57.8133 C.3       7 UNK         0.0281 
     36 CB         27.0381  -51.4642  -58.2950 C.3       7 UNK        -0.1963 
     37 N          27.0473  -49.6459  -56.6577 N.am      7 UNK        -0.4444 
     38 C          26.6890  -48.5501  -55.9737 C.2       7 UNK         0.5104 
     39 O          25.6089  -47.9793  -56.1252 O.2       7 UNK        -0.5100 
     40 CA         27.7229  -47.9420  -55.0066 C.3       6 UNK         0.0396 
     41 CB         27.2562  -48.0972  -53.5508 C.3       6 UNK        -0.1801 
     42 N          29.0929  -48.4573  -55.1329 N.am      6 UNK        -0.4747 
     43 C          29.8700  -48.4238  -56.2294 C.2       6 UNK         0.5012 
     44 O          29.4808  -48.0110  -57.3216 O.2       6 UNK        -0.5003 
     45 CA         31.3039  -48.9757  -56.0857 C.3       5 UNK         0.0782 
     46 C46        32.3425  -47.8372  -55.9002 C.3       11 UNK        -0.0868 
     47 S47        33.1306  -47.2853  -57.4490 S.3       11 UNK        -0.2515 
     48 C48        32.0567  -45.9285  -58.0246 C.3       11 UNK         0.0199 
     49 N          31.4084  -49.9272  -54.9802 N.am      5 UNK        -0.4607 
     50 C          30.9493  -51.1810  -54.9442 C.2       4 UNK         0.5031 
     51 O          30.3137  -51.6946  -55.8655 O.2       4 UNK        -0.5119 
     52 CA         31.2692  -51.9811  -53.6583 C.3       4 UNK         0.0263 
     53 CB         31.0079  -53.4894  -53.8263 C.3       4 UNK        -0.1967 
     54 N          32.6490  -51.7837  -53.1834 N.am      4 UNK        -0.4237 
     55 C          33.1284  -50.6710  -52.6092 C.2       3 UNK         0.4908 
     56 O          32.4329  -49.6802  -52.3639 O.2       3 UNK        -0.5102 
     57 CA         34.6380  -50.6164  -52.3529 C.3       3 UNK         0.0241 
     58 CB         35.4169  -50.6132  -53.6860 C.3       3 UNK        -0.1971 
     59 N          34.9215  -49.3956  -51.6035 N.am      3 UNK        -0.4139 
     60 C          36.0626  -49.0868  -50.9810 C.2       2 UNK         0.5016 
     61 O          37.0378  -49.8398  -50.9377 O.2       2 UNK        -0.5319 
     62 CA         36.1196  -47.7178  -50.2711 C.3       2 UNK         0.0286 
     63 CB         37.5590  -47.1690  -50.1643 C.3       2 UNK        -0.1963 
     64 N          35.2209  -46.6946  -50.8309 N.am      2 UNK        -0.4790 
     65 C          35.2431  -46.1596  -52.0619 C.2       1 UNK         0.5024 
     66 O          35.9808  -46.5445  -52.9705 O.2       1 UNK        -0.4888 
     67 H67        30.6528  -47.5568  -52.6209 H         1 UNK         0.0892 
     68 H68        29.9066  -46.0793  -52.0082 H         1 UNK         0.0892 
     69 H69        30.6332  -46.0922  -53.6113 H         1 UNK         0.0892 
     70 H70        32.7420  -45.2780  -53.7159 H         1 UNK         0.3107 
     71 H71        34.1400  -44.4803  -51.3431 H         1 UNK         0.0773 
     72 H72        35.8940  -43.6930  -53.0079 H         1 UNK         0.0680 
     73 H73        34.9065  -44.3323  -54.2977 H         1 UNK         0.0680 
     74 H74        34.4086  -42.2055  -55.6007 H         1 UNK         0.0650 
     75 H75        33.1390  -41.1063  -55.1276 H         1 UNK         0.0650 
     76 H76        33.7341  -44.1121  -56.8656 H         1 UNK         0.1397 
     77 H77        29.6683  -45.4726  -56.7937 H         1 UNK         0.1363 
     78 H78        30.8955  -42.2669  -54.2303 H         1 UNK         0.1355 
     79 H79        28.6455  -42.9997  -54.1371 H         1 UNK         0.0707 
     80 H80        28.4709  -44.7225  -54.3879 H         1 UNK         0.0707 
     81 H81        26.1971  -43.0469  -54.2155 H         1 UNK         0.1034 
     82 H82        25.3268  -42.5797  -55.6420 H         1 UNK         0.1034 
     83 H83        25.8298  -45.4528  -54.7428 H         1 UNK         0.0482 
     84 H84        22.8323  -45.9915  -55.2785 H         1 UNK         0.3460 
     85 H85        22.0976  -45.3876  -53.8130 H         1 UNK         0.3460 
     86 H86        25.1405  -46.2289  -56.6626 H         1 UNK         0.2989 
     87 H87        22.9929  -46.2083  -58.4400 H         1 UNK         0.0559 
     88 H88        22.3315  -44.1446  -59.6136 H         1 UNK         0.0848 
     89 H89        23.0106  -45.2815  -60.7643 H         1 UNK         0.0848 
     90 H90        23.9668  -43.9075  -60.2099 H         1 UNK         0.0848 
     91 H91        24.7173  -47.3625  -59.2080 H         1 UNK         0.3144 
     92 H92        26.7311  -47.4629  -60.9886 H         1 UNK         0.0727 
     93 H93        28.9199  -46.1310  -59.3156 H         1 UNK         0.0790 
     94 H94        28.5620  -45.8172  -61.0074 H         1 UNK         0.0790 
     95 H95        29.2033  -47.3804  -60.5281 H         1 UNK         0.0790 
     96 H96        27.9039  -48.2298  -58.4319 H         1 UNK         0.3215 
     97 H97        25.3225  -50.4535  -57.4833 H         1 UNK         0.0863 
     98 H98        27.0742  -52.2198  -57.5099 H         1 UNK         0.0808 
     99 H99        28.0620  -51.2618  -58.6127 H         1 UNK         0.0808 
    100 H100       26.5135  -51.9053  -59.1439 H         1 UNK         0.0808 
    101 H101       27.9540  -50.0445  -56.4592 H         1 UNK         0.3118 
    102 H102       27.7667  -46.8767  -55.2384 H         1 UNK         0.0546 
    103 H103       27.2407  -49.1431  -53.2423 H         1 UNK         0.0828 
    104 H104       26.2468  -47.7049  -53.4175 H         1 UNK         0.0828 
    105 H105       27.9024  -47.5521  -52.8635 H         1 UNK         0.0828 
    106 H106       29.4927  -48.8613  -54.2988 H         1 UNK         0.3005 
    107 H107       31.5291  -49.5234  -57.0040 H         1 UNK         0.1257 
    108 H108       31.9349  -46.9940  -55.3452 H         1 UNK         0.0775 
    109 H109       33.1722  -48.1870  -55.2830 H         1 UNK         0.0775 
    110 H110       32.5483  -45.4239  -58.8575 H         1 UNK         0.0840 
    111 H111       31.1420  -46.3537  -58.4363 H         1 UNK         0.0840 
    112 H112       31.8824  -49.5995  -54.1430 H         1 UNK         0.2987 
    113 H113       30.5903  -51.6129  -52.8861 H         1 UNK         0.0785 
    114 H114       29.9704  -53.6799  -54.1048 H         1 UNK         0.0798 
    115 H115       31.1940  -54.0310  -52.8986 H         1 UNK         0.0798 
    116 H116       31.6391  -53.9237  -54.6026 H         1 UNK         0.0798 
    117 H117       33.2954  -52.5338  -53.3836 H         1 UNK         0.3079 
    118 H118       34.9217  -51.4819  -51.7508 H         1 UNK         0.0794 
    119 H119       36.4939  -50.5843  -53.5210 H         1 UNK         0.0786 
    120 H120       35.1541  -49.7513  -54.3011 H         1 UNK         0.0786 
    121 H121       35.2127  -51.5092  -54.2730 H         1 UNK         0.0786 
    122 H122       34.1407  -48.7505  -51.5605 H         1 UNK         0.3032 
    123 H123       35.7670  -47.9047  -49.2553 H         1 UNK         0.1094 
    124 H124       38.2031  -47.8572  -49.6154 H         1 UNK         0.0794 
    125 H125       38.0080  -47.0188  -51.1467 H         1 UNK         0.0794 
    126 H126       37.5833  -46.2168  -49.6345 H         1 UNK         0.0794 
    127 H127       34.4936  -46.3659  -50.2057 H         1 UNK         0.3016 
@<TRIPOS>BOND
     1    1    2 1    
     2    1   67 1    
     3    1   68 1    
     4    1   69 1    
     5    2    3 2    
     6    2    4 am   BACKBONE|DICT|INTERRES
     7    4    5 1    
     8    4   70 1    
     9    5    6 1    
    10    5   65 1    
    11    5   71 1    
    12    6    7 1    
    13    6   72 1    
    14    6   73 1    
    15    7    8 1    
    16    8    9 1    
    17    8   74 1    
    18    8   75 1    
    19    9   10 ar   
    20    9   14 ar   
    21   10   11 ar   
    22   10   76 1    
    23   11   12 ar   
    24   11   48 1    
    25   12   13 ar   
    26   12   77 1    
    27   13   14 ar   
    28   13   15 1    
    29   14   78 1    
    30   15   16 1    
    31   15   79 1    
    32   15   80 1    
    33   16   17 1    
    34   17   18 1    
    35   17   81 1    
    36   17   82 1    
    37   18   19 1    
    38   18   22 1    
    39   18   83 1    
    40   19   20 am   BACKBONE|DICT|INTERRES
    41   19   21 2    
    42   20   84 1    
    43   20   85 1    
    44   22   23 am   BACKBONE|DICT|INTERRES
    45   22   86 1    
    46   23   24 2    
    47   23   25 1    
    48   25   26 1    
    49   25   27 1    
    50   25   87 1    
    51   26   88 1    
    52   26   89 1    
    53   26   90 1    
    54   27   28 am   BACKBONE|DICT|INTERRES
    55   27   91 1    
    56   28   29 2    
    57   28   30 1    
    58   30   31 1    
    59   30   32 1    
    60   30   92 1    
    61   31   93 1    
    62   31   94 1    
    63   31   95 1    
    64   32   33 am   BACKBONE|DICT|INTERRES
    65   32   96 1    
    66   33   34 2    
    67   33   35 1    
    68   35   36 1    
    69   35   37 1    
    70   35   97 1    
    71   36   98 1    
    72   36   99 1    
    73   36  100 1    
    74   37   38 am   BACKBONE|DICT|INTERRES
    75   37  101 1    
    76   38   39 2    
    77   38   40 1    
    78   40   41 1    
    79   40   42 1    
    80   40  102 1    
    81   41  103 1    
    82   41  104 1    
    83   41  105 1    
    84   42   43 am   BACKBONE|DICT|INTERRES
    85   42  106 1    
    86   43   44 2    
    87   43   45 1    
    88   45   46 1    
    89   45   49 1    
    90   45  107 1    
    91   46   47 1    
    92   46  108 1    
    93   46  109 1    
    94   47   48 1    
    95   48  110 1    
    96   48  111 1    
    97   49   50 am   BACKBONE|DICT|INTERRES
    98   49  112 1    
    99   50   51 2    
   100   50   52 1    
   101   52   53 1    
   102   52   54 1    
   103   52  113 1    
   104   53  114 1    
   105   53  115 1    
   106   53  116 1    
   107   54   55 am   BACKBONE|DICT|INTERRES
   108   54  117 1    
   109   55   56 2    
   110   55   57 1    
   111   57   58 1    
   112   57   59 1    
   113   57  118 1    
   114   58  119 1    
   115   58  120 1    
   116   58  121 1    
   117   59   60 am   BACKBONE|DICT|INTERRES
   118   59  122 1    
   119   60   61 2    
   120   60   62 1    
   121   62   63 1    
   122   62   64 1    
   123   62  123 1    
   124   63  124 1    
   125   63  125 1    
   126   63  126 1    
   127   64   65 am   BACKBONE|DICT|INTERRES
   128   64  127 1    
   129   65   66 2    
@<TRIPOS>SUBSTRUCTURE
     1 UNK         1 GROUP             0       ****    0 ROOT    
