@<TRIPOS>MOLECULE
3R134
127   129    1
SMALL
USER_CHARGES


@<TRIPOS>ATOM
      1 CA         31.2222  -43.9404  -50.0001 C.3       0 UNK        -0.1968 
      2 C          32.3952  -44.8641  -50.2886 C.2       0 UNK         0.4852 
      3 O          32.8890  -45.5340  -49.3803 O.2       0 UNK        -0.5359 
      4 N          32.8490  -44.8947  -51.5483 N.am      1 UNK        -0.4300 
      5 CA         33.9400  -45.7423  -52.0341 C.3       1 UNK         0.0863 
      6 C6         34.5054  -45.2635  -53.4002 C.3       11 UNK        -0.0953 
      7 S7         34.9088  -43.4822  -53.4201 S.3       11 UNK        -0.2369 
      8 C8         34.2711  -42.9494  -55.0498 C.3       11 UNK         0.0226 
      9 C9         32.7925  -43.2530  -55.2951 C.ar      11 UNK        -0.0699 
     10 C10        31.8293  -43.0591  -54.2971 C.ar      11 UNK        -0.0804 
     11 C11        30.4833  -43.3611  -54.5338 C.ar      11 UNK        -0.0871 
     12 C12        30.0962  -43.8086  -55.7994 C.ar      11 UNK        -0.1008 
     13 C13        31.0404  -43.9804  -56.8130 C.ar      11 UNK        -0.0735 
     14 C14        32.3869  -43.7123  -56.5531 C.ar      11 UNK        -0.0945 
     15 C15        30.5906  -44.4386  -58.1893 C.3       11 UNK         0.0169 
     16 S16        30.0396  -43.0154  -59.1786 S.3       11 UNK        -0.2669 
     17 C17        28.7646  -43.7709  -60.2418 C.3       11 UNK        -0.0850 
     18 CA         27.3327  -43.4538  -59.7379 C.3       10 UNK         0.0855 
     19 C          26.2740  -43.8715  -60.7940 C.2       10 UNK         0.5543 
     20 N          25.9191  -42.9740  -61.7028 N.am      10 UNK        -0.7343 
     21 O          25.8071  -45.0085  -60.8231 O.2       10 UNK        -0.5027 
     22 N          27.0773  -44.0732  -58.4309 N.am      10 UNK        -0.4495 
     23 C          26.0593  -43.7774  -57.6173 C.2       10 UNK         0.4903 
     24 O          25.2643  -42.8576  -57.8177 O.2       10 UNK        -0.4860 
     25 CA         25.8946  -44.6946  -56.3890 C.3       9 UNK         0.0227 
     26 CB         24.8133  -44.1974  -55.4123 C.3       9 UNK        -0.1964 
     27 N          25.5819  -46.0677  -56.7950 N.am      9 UNK        -0.4231 
     28 C          26.4741  -46.9499  -57.2607 C.2       9 UNK         0.5014 
     29 O          27.6769  -46.7070  -57.3771 O.2       9 UNK        -0.5270 
     30 CA         25.9287  -48.2978  -57.7349 C.3       8 UNK         0.0284 
     31 CB         25.7872  -48.3100  -59.2690 C.3       8 UNK        -0.1977 
     32 N          26.8278  -49.3605  -57.2926 N.am      8 UNK        -0.4342 
     33 C          26.4911  -50.6539  -57.2039 C.2       8 UNK         0.5039 
     34 O          25.3930  -51.1021  -57.5378 O.2       8 UNK        -0.5547 
     35 CA         27.5365  -51.6086  -56.6117 C.3       7 UNK         0.0281 
     36 CB         28.6800  -51.8781  -57.6051 C.3       7 UNK        -0.1963 
     37 N          28.0667  -51.0739  -55.3578 N.am      7 UNK        -0.4444 
     38 C          27.4845  -51.2457  -54.1614 C.2       7 UNK         0.5104 
     39 O          26.4881  -51.9466  -53.9807 O.2       7 UNK        -0.5100 
     40 CA         28.1122  -50.5255  -52.9528 C.3       6 UNK         0.0396 
     41 CB         29.0336  -51.4830  -52.1820 C.3       6 UNK        -0.1801 
     42 N          28.8646  -49.3248  -53.3195 N.am      6 UNK        -0.4747 
     43 C          28.3151  -48.1818  -53.7578 C.2       6 UNK         0.5012 
     44 O          27.1009  -47.9946  -53.8370 O.2       6 UNK        -0.5003 
     45 CA         29.2938  -47.0824  -54.2200 C.3       5 UNK         0.0782 
     46 C46        29.5682  -46.0486  -53.0923 C.3       11 UNK        -0.0868 
     47 S47        28.3880  -44.6551  -53.1587 S.3       11 UNK        -0.2515 
     48 C48        29.4516  -43.1899  -53.4232 C.3       11 UNK         0.0199 
     49 N          30.5392  -47.6219  -54.7808 N.am      5 UNK        -0.4607 
     50 C          30.6299  -48.3900  -55.8747 C.2       4 UNK         0.5031 
     51 O          29.6538  -48.8484  -56.4667 O.2       4 UNK        -0.5119 
     52 CA         32.0366  -48.7267  -56.3803 C.3       4 UNK         0.0263 
     53 CB         32.7202  -47.4769  -56.9600 C.3       4 UNK        -0.1967 
     54 N          32.8783  -49.2978  -55.3254 N.am      4 UNK        -0.4237 
     55 C          33.5372  -50.4622  -55.4297 C.2       3 UNK         0.4908 
     56 O          33.4378  -51.2169  -56.3983 O.2       3 UNK        -0.5102 
     57 CA         34.5044  -50.8594  -54.2958 C.3       3 UNK         0.0241 
     58 CB         35.9621  -50.6712  -54.7498 C.3       3 UNK        -0.1971 
     59 N          34.3032  -50.1219  -53.0479 N.am      3 UNK        -0.4139 
     60 C          33.2956  -50.3324  -52.1922 C.2       2 UNK         0.5016 
     61 O          32.4452  -51.2091  -52.3406 O.2       2 UNK        -0.5319 
     62 CA         33.2006  -49.3899  -50.9772 C.3       2 UNK         0.0286 
     63 CB         33.8483  -50.0416  -49.7451 C.3       2 UNK        -0.1963 
     64 N          33.7672  -48.0443  -51.1647 N.am      2 UNK        -0.4790 
     65 C          33.4194  -47.1859  -52.1332 C.2       1 UNK         0.5024 
     66 O          32.6817  -47.4851  -53.0722 O.2       1 UNK        -0.4888 
     67 H67        30.2897  -44.3958  -50.3328 H         1 UNK         0.0892 
     68 H68        31.1422  -43.7452  -48.9309 H         1 UNK         0.0892 
     69 H69        31.3459  -42.9825  -50.5044 H         1 UNK         0.0892 
     70 H70        32.4015  -44.3341  -52.2564 H         1 UNK         0.3107 
     71 H71        34.7527  -45.7074  -51.3053 H         1 UNK         0.0773 
     72 H72        33.8033  -45.4728  -54.2082 H         1 UNK         0.0680 
     73 H73        35.4128  -45.8180  -53.6454 H         1 UNK         0.0680 
     74 H74        34.8863  -43.4195  -55.8187 H         1 UNK         0.0650 
     75 H75        34.4248  -41.8743  -55.1478 H         1 UNK         0.0650 
     76 H76        32.1324  -42.6706  -53.3353 H         1 UNK         0.1397 
     77 H77        29.0562  -44.0207  -55.9996 H         1 UNK         0.1363 
     78 H78        33.1172  -43.8472  -57.3392 H         1 UNK         0.1355 
     79 H79        31.4009  -44.9458  -58.7145 H         1 UNK         0.0707 
     80 H80        29.7868  -45.1677  -58.0826 H         1 UNK         0.0707 
     81 H81        28.9100  -43.3723  -61.2479 H         1 UNK         0.1034 
     82 H82        28.9233  -44.8482  -60.3221 H         1 UNK         0.1034 
     83 H83        27.2542  -42.3727  -59.6032 H         1 UNK         0.0482 
     84 H84        26.3027  -42.0415  -61.6937 H         1 UNK         0.3460 
     85 H85        25.2448  -43.2307  -62.4070 H         1 UNK         0.3460 
     86 H86        27.6160  -44.9045  -58.2114 H         1 UNK         0.2989 
     87 H87        26.8428  -44.6968  -55.8494 H         1 UNK         0.0559 
     88 H88        25.0325  -43.1841  -55.0729 H         1 UNK         0.0848 
     89 H89        24.7628  -44.8286  -54.5247 H         1 UNK         0.0848 
     90 H90        23.8245  -44.1815  -55.8723 H         1 UNK         0.0848 
     91 H91        24.6063  -46.3288  -56.7759 H         1 UNK         0.3144 
     92 H92        24.9484  -48.4583  -57.2807 H         1 UNK         0.0727 
     93 H93        26.7521  -48.1788  -59.7607 H         1 UNK         0.0790 
     94 H94        25.1376  -47.5019  -59.6079 H         1 UNK         0.0790 
     95 H95        25.3529  -49.2436  -59.6263 H         1 UNK         0.0790 
     96 H96        27.7571  -49.0531  -57.0070 H         1 UNK         0.3215 
     97 H97        27.0448  -52.5638  -56.4128 H         1 UNK         0.0863 
     98 H98        29.4166  -52.5628  -57.1846 H         1 UNK         0.0808 
     99 H99        29.2003  -50.9661  -57.8968 H         1 UNK         0.0808 
    100 H100       28.2969  -52.3356  -58.5181 H         1 UNK         0.0808 
    101 H101       28.8380  -50.4214  -55.4381 H         1 UNK         0.3118 
    102 H102       27.3000  -50.2257  -52.2872 H         1 UNK         0.0546 
    103 H103       29.8521  -51.8437  -52.8061 H         1 UNK         0.0828 
    104 H104       28.4825  -52.3575  -51.8335 H         1 UNK         0.0828 
    105 H105       29.4670  -51.0032  -51.3043 H         1 UNK         0.0828 
    106 H106       29.8724  -49.3898  -53.2927 H         1 UNK         0.3005 
    107 H107       28.8062  -46.5688  -55.0508 H         1 UNK         0.1257 
    108 H108       30.5785  -45.6509  -53.1794 H         1 UNK         0.0775 
    109 H109       29.5310  -46.5043  -52.1008 H         1 UNK         0.0775 
    110 H110       28.8149  -42.3383  -53.6665 H         1 UNK         0.0840 
    111 H111       29.9377  -42.9425  -52.4801 H         1 UNK         0.0840 
    112 H112       31.3908  -47.3645  -54.2884 H         1 UNK         0.2987 
    113 H113       31.9101  -49.4417  -57.1961 H         1 UNK         0.0785 
    114 H114       32.1175  -47.0421  -57.7573 H         1 UNK         0.0798 
    115 H115       33.6930  -47.7211  -57.3868 H         1 UNK         0.0798 
    116 H116       32.8713  -46.7056  -56.2039 H         1 UNK         0.0798 
    117 H117       32.9718  -48.7529  -54.4734 H         1 UNK         0.3079 
    118 H118       34.3459  -51.9213  -54.0946 H         1 UNK         0.0794 
    119 H119       36.1658  -51.2399  -55.6583 H         1 UNK         0.0786 
    120 H120       36.6630  -51.0185  -53.9903 H         1 UNK         0.0786 
    121 H121       36.1869  -49.6254  -54.9633 H         1 UNK         0.0786 
    122 H122       34.9559  -49.3802  -52.8407 H         1 UNK         0.3032 
    123 H123       32.1359  -49.2593  -50.7706 H         1 UNK         0.1094 
    124 H124       33.6762  -49.4499  -48.8457 H         1 UNK         0.0794 
    125 H125       33.4310  -51.0330  -49.5613 H         1 UNK         0.0794 
    126 H126       34.9254  -50.1593  -49.8704 H         1 UNK         0.0794 
    127 H127       34.3482  -47.6983  -50.4132 H         1 UNK         0.3016 
@<TRIPOS>BOND
     1    1    2 1    
     2    1   67 1    
     3    1   68 1    
     4    1   69 1    
     5    2    3 2    
     6    2    4 am   BACKBONE|DICT|INTERRES
     7    4    5 1    
     8    4   70 1    
     9    5    6 1    
    10    5   65 1    
    11    5   71 1    
    12    6    7 1    
    13    6   72 1    
    14    6   73 1    
    15    7    8 1    
    16    8    9 1    
    17    8   74 1    
    18    8   75 1    
    19    9   10 ar   
    20    9   14 ar   
    21   10   11 ar   
    22   10   76 1    
    23   11   12 ar   
    24   11   48 1    
    25   12   13 ar   
    26   12   77 1    
    27   13   14 ar   
    28   13   15 1    
    29   14   78 1    
    30   15   16 1    
    31   15   79 1    
    32   15   80 1    
    33   16   17 1    
    34   17   18 1    
    35   17   81 1    
    36   17   82 1    
    37   18   19 1    
    38   18   22 1    
    39   18   83 1    
    40   19   20 am   BACKBONE|DICT|INTERRES
    41   19   21 2    
    42   20   84 1    
    43   20   85 1    
    44   22   23 am   BACKBONE|DICT|INTERRES
    45   22   86 1    
    46   23   24 2    
    47   23   25 1    
    48   25   26 1    
    49   25   27 1    
    50   25   87 1    
    51   26   88 1    
    52   26   89 1    
    53   26   90 1    
    54   27   28 am   BACKBONE|DICT|INTERRES
    55   27   91 1    
    56   28   29 2    
    57   28   30 1    
    58   30   31 1    
    59   30   32 1    
    60   30   92 1    
    61   31   93 1    
    62   31   94 1    
    63   31   95 1    
    64   32   33 am   BACKBONE|DICT|INTERRES
    65   32   96 1    
    66   33   34 2    
    67   33   35 1    
    68   35   36 1    
    69   35   37 1    
    70   35   97 1    
    71   36   98 1    
    72   36   99 1    
    73   36  100 1    
    74   37   38 am   BACKBONE|DICT|INTERRES
    75   37  101 1    
    76   38   39 2    
    77   38   40 1    
    78   40   41 1    
    79   40   42 1    
    80   40  102 1    
    81   41  103 1    
    82   41  104 1    
    83   41  105 1    
    84   42   43 am   BACKBONE|DICT|INTERRES
    85   42  106 1    
    86   43   44 2    
    87   43   45 1    
    88   45   46 1    
    89   45   49 1    
    90   45  107 1    
    91   46   47 1    
    92   46  108 1    
    93   46  109 1    
    94   47   48 1    
    95   48  110 1    
    96   48  111 1    
    97   49   50 am   BACKBONE|DICT|INTERRES
    98   49  112 1    
    99   50   51 2    
   100   50   52 1    
   101   52   53 1    
   102   52   54 1    
   103   52  113 1    
   104   53  114 1    
   105   53  115 1    
   106   53  116 1    
   107   54   55 am   BACKBONE|DICT|INTERRES
   108   54  117 1    
   109   55   56 2    
   110   55   57 1    
   111   57   58 1    
   112   57   59 1    
   113   57  118 1    
   114   58  119 1    
   115   58  120 1    
   116   58  121 1    
   117   59   60 am   BACKBONE|DICT|INTERRES
   118   59  122 1    
   119   60   61 2    
   120   60   62 1    
   121   62   63 1    
   122   62   64 1    
   123   62  123 1    
   124   63  124 1    
   125   63  125 1    
   126   63  126 1    
   127   64   65 am   BACKBONE|DICT|INTERRES
   128   64  127 1    
   129   65   66 2    
@<TRIPOS>SUBSTRUCTURE
     1 UNK         1 GROUP             0       ****    0 ROOT    
