@<TRIPOS>MOLECULE
3R134
127   129    1
SMALL
USER_CHARGES


@<TRIPOS>ATOM
      1 CA         37.6474  -44.9760  -50.9379 C.3       0 UNK        -0.1968 
      2 C          36.8602  -45.4396  -52.1547 C.2       0 UNK         0.4852 
      3 O          37.3951  -46.1806  -52.9807 O.2       0 UNK        -0.5359 
      4 N          35.5972  -45.0058  -52.2703 N.am      1 UNK        -0.4300 
      5 CA         34.6818  -45.3521  -53.3673 C.3       1 UNK         0.0863 
      6 C6         33.4426  -44.4281  -53.3930 C.3       11 UNK        -0.0953 
      7 S7         33.9025  -42.6810  -53.6638 S.3       11 UNK        -0.2369 
      8 C8         32.5215  -41.7945  -52.8671 C.3       11 UNK         0.0226 
      9 C9         31.1718  -42.2526  -53.4001 C.ar      11 UNK        -0.0699 
     10 C10        30.2528  -42.8736  -52.5501 C.ar      11 UNK        -0.0804 
     11 C11        29.0563  -43.3948  -53.0551 C.ar      11 UNK        -0.0871 
     12 C12        28.7650  -43.2491  -54.4152 C.ar      11 UNK        -0.1008 
     13 C13        29.6659  -42.6055  -55.2677 C.ar      11 UNK        -0.0735 
     14 C14        30.8628  -42.1020  -54.7543 C.ar      11 UNK        -0.0945 
     15 C15        29.3757  -42.4977  -56.7535 C.3       11 UNK         0.0169 
     16 S16        29.9942  -43.9734  -57.6114 S.3       11 UNK        -0.2669 
     17 C17        29.7685  -43.4930  -59.3567 C.3       11 UNK        -0.0850 
     18 CA         28.4035  -43.9281  -59.9523 C.3       10 UNK         0.0855 
     19 C          28.3518  -43.5497  -61.4595 C.2       10 UNK         0.5543 
     20 N          27.7314  -42.4281  -61.7985 N.am      10 UNK        -0.7343 
     21 O          28.9146  -44.2368  -62.3099 O.2       10 UNK        -0.5027 
     22 N          28.1361  -45.3480  -59.6741 N.am      10 UNK        -0.4495 
     23 C          27.1204  -46.0893  -60.1336 C.2       10 UNK         0.4903 
     24 O          26.2269  -45.6761  -60.8731 O.2       10 UNK        -0.4860 
     25 CA         27.0896  -47.5457  -59.6487 C.3       9 UNK         0.0227 
     26 CB         28.4161  -48.2802  -59.9210 C.3       9 UNK        -0.1964 
     27 N          26.7720  -47.6240  -58.2240 N.am      9 UNK        -0.4231 
     28 C          25.5559  -47.4400  -57.6920 C.2       9 UNK         0.5014 
     29 O          24.5550  -47.1335  -58.3432 O.2       9 UNK        -0.5270 
     30 CA         25.4487  -47.6960  -56.1756 C.3       8 UNK         0.0284 
     31 CB         24.0034  -47.6227  -55.6400 C.3       8 UNK        -0.1977 
     32 N          26.0850  -48.9634  -55.7948 N.am      8 UNK        -0.4342 
     33 C          25.8033  -50.1955  -56.2486 C.2       8 UNK         0.5039 
     34 O          24.8598  -50.4598  -56.9950 O.2       8 UNK        -0.5547 
     35 CA         26.7549  -51.3323  -55.8329 C.3       7 UNK         0.0281 
     36 CB         27.6687  -51.7057  -57.0123 C.3       7 UNK        -0.1963 
     37 N          27.5851  -50.9993  -54.6721 N.am      7 UNK        -0.4444 
     38 C          27.1459  -50.9957  -53.4059 C.2       7 UNK         0.5104 
     39 O          26.0120  -51.3412  -53.0725 O.2       7 UNK        -0.5100 
     40 CA         28.1255  -50.4871  -52.3336 C.3       6 UNK         0.0396 
     41 CB         29.1138  -51.5925  -51.9329 C.3       6 UNK        -0.1801 
     42 N          28.8643  -49.2880  -52.7422 N.am      6 UNK        -0.4747 
     43 C          28.3049  -48.1066  -53.0485 C.2       6 UNK         0.5012 
     44 O          27.0918  -47.9004  -53.0476 O.2       6 UNK        -0.5003 
     45 CA         29.2581  -46.9778  -53.4774 C.3       5 UNK         0.0782 
     46 C46        29.9680  -46.3171  -52.2709 C.3       11 UNK        -0.0868 
     47 S47        28.8758  -45.4206  -51.1099 S.3       11 UNK        -0.2515 
     48 C48        28.0838  -44.1395  -52.1467 C.3       11 UNK         0.0199 
     49 N          30.2285  -47.4735  -54.4516 N.am      5 UNK        -0.4607 
     50 C          29.9539  -47.7523  -55.7326 C.2       4 UNK         0.5031 
     51 O          28.8585  -47.5642  -56.2626 O.2       4 UNK        -0.5119 
     52 CA         31.0853  -48.3931  -56.5516 C.3       4 UNK         0.0263 
     53 CB         31.9618  -47.3125  -57.2023 C.3       4 UNK        -0.1967 
     54 N          31.9185  -49.2941  -55.7490 N.am      4 UNK        -0.4237 
     55 C          31.4818  -50.4610  -55.2504 C.2       3 UNK         0.4908 
     56 O          30.3443  -50.8946  -55.4275 O.2       3 UNK        -0.5102 
     57 CA         32.4523  -51.2700  -54.3751 C.3       3 UNK         0.0241 
     58 CB         33.3074  -52.2032  -55.2466 C.3       3 UNK        -0.1971 
     59 N          33.3266  -50.4561  -53.5284 N.am      3 UNK        -0.4139 
     60 C          32.9270  -49.5512  -52.6234 C.2       2 UNK         0.5016 
     61 O          31.7477  -49.2567  -52.4229 O.2       2 UNK        -0.5319 
     62 CA         34.0275  -48.8396  -51.8120 C.3       2 UNK         0.0286 
     63 CB         35.4134  -49.5171  -51.9111 C.3       2 UNK        -0.1963 
     64 N          34.1654  -47.4124  -52.1295 N.am      2 UNK        -0.4790 
     65 C          34.2692  -46.8405  -53.3416 C.2       1 UNK         0.5024 
     66 O          34.0946  -47.4353  -54.4070 O.2       1 UNK        -0.4888 
     67 H67        38.5381  -44.4326  -51.2523 H         1 UNK         0.0892 
     68 H68        37.0595  -44.3198  -50.2963 H         1 UNK         0.0892 
     69 H69        37.9630  -45.8349  -50.3462 H         1 UNK         0.0892 
     70 H70        35.2261  -44.3719  -51.5771 H         1 UNK         0.3107 
     71 H71        35.2260  -45.2022  -54.3027 H         1 UNK         0.0773 
     72 H72        32.8856  -44.5127  -52.4582 H         1 UNK         0.0680 
     73 H73        32.7572  -44.7191  -54.1922 H         1 UNK         0.0680 
     74 H74        32.5854  -41.9391  -51.7875 H         1 UNK         0.0650 
     75 H75        32.6351  -40.7244  -53.0447 H         1 UNK         0.0650 
     76 H76        30.4875  -42.9948  -51.5014 H         1 UNK         0.1397 
     77 H77        27.8481  -43.6554  -54.8204 H         1 UNK         0.1363 
     78 H78        31.5765  -41.6311  -55.4167 H         1 UNK         0.1355 
     79 H79        28.3035  -42.3949  -56.9274 H         1 UNK         0.0707 
     80 H80        29.8485  -41.6037  -57.1632 H         1 UNK         0.0707 
     81 H81        30.5863  -43.9447  -59.9223 H         1 UNK         0.1034 
     82 H82        29.9031  -42.4140  -59.4547 H         1 UNK         0.1034 
     83 H83        27.6193  -43.3707  -59.4366 H         1 UNK         0.0482 
     84 H84        27.2768  -41.8525  -61.1066 H         1 UNK         0.3460 
     85 H85        27.7038  -42.1579  -62.7694 H         1 UNK         0.3460 
     86 H86        28.7938  -45.7823  -59.0441 H         1 UNK         0.2989 
     87 H87        26.3051  -48.0641  -60.2044 H         1 UNK         0.0559 
     88 H88        29.2399  -47.8846  -59.3261 H         1 UNK         0.0848 
     89 H89        28.7001  -48.1965  -60.9709 H         1 UNK         0.0848 
     90 H90        28.3283  -49.3431  -59.6952 H         1 UNK         0.0848 
     91 H91        27.5453  -47.7876  -57.5821 H         1 UNK         0.3144 
     92 H92        26.0224  -46.9058  -55.6884 H         1 UNK         0.0727 
     93 H93        23.3586  -48.3674  -56.1077 H         1 UNK         0.0790 
     94 H94        23.5647  -46.6435  -55.8350 H         1 UNK         0.0790 
     95 H95        23.9745  -47.7826  -54.5621 H         1 UNK         0.0790 
     96 H96        26.8755  -48.8706  -55.1709 H         1 UNK         0.3215 
     97 H97        26.1419  -52.2020  -55.5858 H         1 UNK         0.0863 
     98 H98        28.2952  -50.8661  -57.3170 H         1 UNK         0.0808 
     99 H99        27.0830  -52.0075  -57.8817 H         1 UNK         0.0808 
    100 H100       28.3252  -52.5382  -56.7585 H         1 UNK         0.0808 
    101 H101       28.5612  -50.7747  -54.8587 H         1 UNK         0.3118 
    102 H102       27.5414  -50.2205  -51.4505 H         1 UNK         0.0546 
    103 H103       29.8008  -51.2524  -51.1578 H         1 UNK         0.0828 
    104 H104       29.7060  -51.9295  -52.7830 H         1 UNK         0.0828 
    105 H105       28.5855  -52.4625  -51.5406 H         1 UNK         0.0828 
    106 H106       29.8806  -49.3523  -52.7409 H         1 UNK         0.3005 
    107 H107       28.6569  -46.2193  -53.9823 H         1 UNK         0.1257 
    108 H108       30.7220  -45.6180  -52.6311 H         1 UNK         0.0775 
    109 H109       30.5203  -47.0609  -51.6948 H         1 UNK         0.0775 
    110 H110       27.2918  -44.6110  -52.7306 H         1 UNK         0.0840 
    111 H111       27.5899  -43.4179  -51.4947 H         1 UNK         0.0840 
    112 H112       31.1351  -47.7323  -54.0869 H         1 UNK         0.2987 
    113 H113       30.6243  -48.9825  -57.3472 H         1 UNK         0.0785 
    114 H114       32.4194  -46.6583  -56.4590 H         1 UNK         0.0798 
    115 H115       32.7600  -47.7532  -57.7995 H         1 UNK         0.0798 
    116 H116       31.3705  -46.6835  -57.8684 H         1 UNK         0.0798 
    117 H117       32.8486  -48.9717  -55.5081 H         1 UNK         0.3079 
    118 H118       31.8506  -51.8903  -53.7094 H         1 UNK         0.0794 
    119 H119       33.9231  -52.8642  -54.6363 H         1 UNK         0.0786 
    120 H120       33.9687  -51.6441  -55.9101 H         1 UNK         0.0786 
    121 H121       32.6780  -52.8377  -55.8726 H         1 UNK         0.0786 
    122 H122       34.3196  -50.6042  -53.6343 H         1 UNK         0.3032 
    123 H123       33.7065  -48.8988  -50.7705 H         1 UNK         0.1094 
    124 H124       35.3623  -50.5741  -51.6455 H         1 UNK         0.0794 
    125 H125       35.8407  -49.4387  -52.9118 H         1 UNK         0.0794 
    126 H126       36.1205  -49.0541  -51.2224 H         1 UNK         0.0794 
    127 H127       34.2898  -46.8078  -51.3298 H         1 UNK         0.3016 
@<TRIPOS>BOND
     1    1    2 1    
     2    1   67 1    
     3    1   68 1    
     4    1   69 1    
     5    2    3 2    
     6    2    4 am   BACKBONE|DICT|INTERRES
     7    4    5 1    
     8    4   70 1    
     9    5    6 1    
    10    5   65 1    
    11    5   71 1    
    12    6    7 1    
    13    6   72 1    
    14    6   73 1    
    15    7    8 1    
    16    8    9 1    
    17    8   74 1    
    18    8   75 1    
    19    9   10 ar   
    20    9   14 ar   
    21   10   11 ar   
    22   10   76 1    
    23   11   12 ar   
    24   11   48 1    
    25   12   13 ar   
    26   12   77 1    
    27   13   14 ar   
    28   13   15 1    
    29   14   78 1    
    30   15   16 1    
    31   15   79 1    
    32   15   80 1    
    33   16   17 1    
    34   17   18 1    
    35   17   81 1    
    36   17   82 1    
    37   18   19 1    
    38   18   22 1    
    39   18   83 1    
    40   19   20 am   BACKBONE|DICT|INTERRES
    41   19   21 2    
    42   20   84 1    
    43   20   85 1    
    44   22   23 am   BACKBONE|DICT|INTERRES
    45   22   86 1    
    46   23   24 2    
    47   23   25 1    
    48   25   26 1    
    49   25   27 1    
    50   25   87 1    
    51   26   88 1    
    52   26   89 1    
    53   26   90 1    
    54   27   28 am   BACKBONE|DICT|INTERRES
    55   27   91 1    
    56   28   29 2    
    57   28   30 1    
    58   30   31 1    
    59   30   32 1    
    60   30   92 1    
    61   31   93 1    
    62   31   94 1    
    63   31   95 1    
    64   32   33 am   BACKBONE|DICT|INTERRES
    65   32   96 1    
    66   33   34 2    
    67   33   35 1    
    68   35   36 1    
    69   35   37 1    
    70   35   97 1    
    71   36   98 1    
    72   36   99 1    
    73   36  100 1    
    74   37   38 am   BACKBONE|DICT|INTERRES
    75   37  101 1    
    76   38   39 2    
    77   38   40 1    
    78   40   41 1    
    79   40   42 1    
    80   40  102 1    
    81   41  103 1    
    82   41  104 1    
    83   41  105 1    
    84   42   43 am   BACKBONE|DICT|INTERRES
    85   42  106 1    
    86   43   44 2    
    87   43   45 1    
    88   45   46 1    
    89   45   49 1    
    90   45  107 1    
    91   46   47 1    
    92   46  108 1    
    93   46  109 1    
    94   47   48 1    
    95   48  110 1    
    96   48  111 1    
    97   49   50 am   BACKBONE|DICT|INTERRES
    98   49  112 1    
    99   50   51 2    
   100   50   52 1    
   101   52   53 1    
   102   52   54 1    
   103   52  113 1    
   104   53  114 1    
   105   53  115 1    
   106   53  116 1    
   107   54   55 am   BACKBONE|DICT|INTERRES
   108   54  117 1    
   109   55   56 2    
   110   55   57 1    
   111   57   58 1    
   112   57   59 1    
   113   57  118 1    
   114   58  119 1    
   115   58  120 1    
   116   58  121 1    
   117   59   60 am   BACKBONE|DICT|INTERRES
   118   59  122 1    
   119   60   61 2    
   120   60   62 1    
   121   62   63 1    
   122   62   64 1    
   123   62  123 1    
   124   63  124 1    
   125   63  125 1    
   126   63  126 1    
   127   64   65 am   BACKBONE|DICT|INTERRES
   128   64  127 1    
   129   65   66 2    
@<TRIPOS>SUBSTRUCTURE
     1 UNK         1 GROUP             0       ****    0 ROOT    
