@<TRIPOS>MOLECULE
3R134
127   129    1
SMALL
USER_CHARGES


@<TRIPOS>ATOM
      1 CA         35.6789  -47.5615  -52.4015 C.3       0 UNK        -0.1968 
      2 C          34.4039  -46.8543  -52.8346 C.2       0 UNK         0.4852 
      3 O          33.5953  -47.4409  -53.5607 O.2       0 UNK        -0.5359 
      4 N          34.2145  -45.6064  -52.3916 N.am      1 UNK        -0.4300 
      5 CA         33.0914  -44.7348  -52.7479 C.3       1 UNK         0.0863 
      6 C6         33.3081  -43.2703  -52.2805 C.3       11 UNK        -0.0953 
      7 S7         34.9443  -42.6116  -52.7773 S.3       11 UNK        -0.2369 
      8 C8         34.5930  -41.6931  -54.3148 C.3       11 UNK         0.0226 
      9 C9         33.8017  -42.5147  -55.3233 C.ar      11 UNK        -0.0699 
     10 C10        34.3182  -43.7102  -55.8372 C.ar      11 UNK        -0.0804 
     11 C11        33.5460  -44.5254  -56.6737 C.ar      11 UNK        -0.0871 
     12 C12        32.2760  -44.0766  -57.0629 C.ar      11 UNK        -0.1008 
     13 C13        31.7538  -42.8829  -56.5617 C.ar      11 UNK        -0.0735 
     14 C14        32.5205  -42.1037  -55.6954 C.ar      11 UNK        -0.0945 
     15 C15        30.3341  -42.4691  -56.9037 C.3       11 UNK         0.0169 
     16 S16        29.1898  -43.0718  -55.6269 S.3       11 UNK        -0.2669 
     17 C17        27.5940  -42.5587  -56.3429 C.3       11 UNK        -0.0850 
     18 CA         26.3800  -43.1918  -55.6147 C.3       10 UNK         0.0855 
     19 C          25.0459  -42.6619  -56.2206 C.2       10 UNK         0.5543 
     20 N          24.2356  -43.4811  -56.8823 N.am      10 UNK        -0.7343 
     21 O          24.7424  -41.4793  -56.0850 O.2       10 UNK        -0.5027 
     22 N          26.4862  -44.6573  -55.5624 N.am      10 UNK        -0.4495 
     23 C          25.7618  -45.4583  -54.7721 C.2       10 UNK         0.4903 
     24 O          24.9964  -45.0453  -53.8996 O.2       10 UNK        -0.4860 
     25 CA         25.9160  -46.9762  -55.0043 C.3       9 UNK         0.0227 
     26 CB         24.6443  -47.7569  -54.6124 C.3       9 UNK        -0.1964 
     27 N          26.3387  -47.3279  -56.3682 N.am      9 UNK        -0.4231 
     28 C          25.7090  -47.0415  -57.5205 C.2       9 UNK         0.5014 
     29 O          24.6670  -46.3889  -57.5960 O.2       9 UNK        -0.5270 
     30 CA         26.3751  -47.5465  -58.8088 C.3       8 UNK         0.0284 
     31 CB         27.4933  -46.5849  -59.2476 C.3       8 UNK        -0.1977 
     32 N          26.9237  -48.8912  -58.6247 N.am      8 UNK        -0.4342 
     33 C          26.2358  -50.0257  -58.8202 C.2       8 UNK         0.5039 
     34 O          25.0979  -50.0670  -59.2895 O.2       8 UNK        -0.5547 
     35 CA         26.9273  -51.3413  -58.4123 C.3       7 UNK         0.0281 
     36 CB         27.7373  -51.9130  -59.5871 C.3       7 UNK        -0.1963 
     37 N          27.8024  -51.1834  -57.2475 N.am      7 UNK        -0.4444 
     38 C          27.3735  -50.9092  -56.0069 C.2       7 UNK         0.5104 
     39 O          26.1866  -50.9014  -55.6838 O.2       7 UNK        -0.5100 
     40 CA         28.4388  -50.5497  -54.9527 C.3       6 UNK         0.0396 
     41 CB         28.6509  -51.7194  -53.9805 C.3       6 UNK        -0.1801 
     42 N          29.7330  -50.1296  -55.5104 N.am      6 UNK        -0.4747 
     43 C          29.9337  -49.0318  -56.2561 C.2       6 UNK         0.5012 
     44 O          29.0139  -48.2649  -56.5475 O.2       6 UNK        -0.5003 
     45 CA         31.3669  -48.7502  -56.7741 C.3       5 UNK         0.0782 
     46 C46        31.5771  -47.2537  -57.1127 C.3       11 UNK        -0.0868 
     47 S47        33.0637  -46.9535  -58.1319 S.3       11 UNK        -0.2515 
     48 C48        34.1090  -45.8987  -57.0611 C.3       11 UNK         0.0199 
     49 N          32.3821  -49.2326  -55.8336 N.am      5 UNK        -0.4607 
     50 C          32.8644  -50.4817  -55.7770 C.2       4 UNK         0.5031 
     51 O          32.5580  -51.3720  -56.5683 O.2       4 UNK        -0.5119 
     52 CA         33.7637  -50.8027  -54.5752 C.3       4 UNK         0.0263 
     53 CB         35.1993  -50.3117  -54.8221 C.3       4 UNK        -0.1967 
     54 N          33.2165  -50.1646  -53.3764 N.am      4 UNK        -0.4237 
     55 C          32.2346  -50.6801  -52.6249 C.2       3 UNK         0.4908 
     56 O          31.8275  -51.8359  -52.7351 O.2       3 UNK        -0.5102 
     57 CA         31.5576  -49.7358  -51.6224 C.3       3 UNK         0.0241 
     58 CB         32.4725  -49.4496  -50.4197 C.3       3 UNK        -0.1971 
     59 N          31.1731  -48.4741  -52.2652 N.am      3 UNK        -0.4139 
     60 C          29.9287  -47.9750  -52.3135 C.2       2 UNK         0.5016 
     61 O          28.9493  -48.5472  -51.8335 O.2       2 UNK        -0.5319 
     62 CA         29.7280  -46.6183  -53.0303 C.3       2 UNK         0.0286 
     63 CB         28.6275  -45.7573  -52.3736 C.3       2 UNK        -0.1963 
     64 N          30.9626  -45.8398  -53.2094 N.am      2 UNK        -0.4790 
     65 C          31.7584  -45.3285  -52.2558 C.2       1 UNK         0.5024 
     66 O          31.5205  -45.3729  -51.0478 O.2       1 UNK        -0.4888 
     67 H67        36.2231  -46.9920  -51.6482 H         1 UNK         0.0892 
     68 H68        36.3358  -47.7018  -53.2592 H         1 UNK         0.0892 
     69 H69        35.4518  -48.5412  -51.9834 H         1 UNK         0.0892 
     70 H70        34.9043  -45.1837  -51.7872 H         1 UNK         0.3107 
     71 H71        33.0415  -44.7272  -53.8339 H         1 UNK         0.0773 
     72 H72        33.2444  -43.2043  -51.1928 H         1 UNK         0.0680 
     73 H73        32.5219  -42.6215  -52.6709 H         1 UNK         0.0680 
     74 H74        34.0614  -40.7758  -54.0571 H         1 UNK         0.0650 
     75 H75        35.5369  -41.3852  -54.7662 H         1 UNK         0.0650 
     76 H76        35.2990  -44.0405  -55.5222 H         1 UNK         0.1397 
     77 H77        31.6582  -44.6640  -57.7243 H         1 UNK         0.1363 
     78 H78        32.1032  -41.1933  -55.2869 H         1 UNK         0.1355 
     79 H79        30.0465  -42.8701  -57.8770 H         1 UNK         0.0707 
     80 H80        30.2633  -41.3827  -56.9778 H         1 UNK         0.0707 
     81 H81        27.5400  -41.4689  -56.2999 H         1 UNK         0.1034 
     82 H82        27.5790  -42.8249  -57.4017 H         1 UNK         0.1034 
     83 H83        26.4004  -42.8377  -54.5821 H         1 UNK         0.0482 
     84 H84        24.4666  -44.4609  -57.0075 H         1 UNK         0.3460 
     85 H85        23.3768  -43.1188  -57.2642 H         1 UNK         0.3460 
     86 H86        27.1050  -45.0793  -56.2372 H         1 UNK         0.2989 
     87 H87        26.7214  -47.3070  -54.3479 H         1 UNK         0.0559 
     88 H88        24.4042  -47.6142  -53.5582 H         1 UNK         0.0848 
     89 H89        24.7699  -48.8275  -54.7697 H         1 UNK         0.0848 
     90 H90        23.7781  -47.4334  -55.1904 H         1 UNK         0.0848 
     91 H91        27.2427  -47.7911  -56.4320 H         1 UNK         0.3144 
     92 H92        25.6177  -47.5648  -59.5956 H         1 UNK         0.0727 
     93 H93        27.9478  -46.9095  -60.1838 H         1 UNK         0.0790 
     94 H94        28.2850  -46.5064  -58.5020 H         1 UNK         0.0790 
     95 H95        27.0999  -45.5806  -59.4112 H         1 UNK         0.0790 
     96 H96        27.8396  -48.9482  -58.1986 H         1 UNK         0.3215 
     97 H97        26.1453  -52.0589  -58.1535 H         1 UNK         0.0863 
     98 H98        28.1720  -52.8808  -59.3364 H         1 UNK         0.0808 
     99 H99        28.5476  -51.2464  -59.8851 H         1 UNK         0.0808 
    100 H100       27.1014  -52.0626  -60.4610 H         1 UNK         0.0808 
    101 H101       28.7980  -51.2159  -57.4101 H         1 UNK         0.3118 
    102 H102       28.0391  -49.7095  -54.3808 H         1 UNK         0.0546 
    103 H103       27.6991  -52.0998  -53.6069 H         1 UNK         0.0828 
    104 H104       29.2253  -51.4048  -53.1104 H         1 UNK         0.0828 
    105 H105       29.1743  -52.5521  -54.4517 H         1 UNK         0.0828 
    106 H106       30.5215  -50.7366  -55.3321 H         1 UNK         0.3005 
    107 H107       31.4555  -49.3134  -57.7062 H         1 UNK         0.1257 
    108 H108       31.6177  -46.6625  -56.1970 H         1 UNK         0.0775 
    109 H109       30.7391  -46.8613  -57.6916 H         1 UNK         0.0775 
    110 H110       34.3307  -46.4568  -56.1499 H         1 UNK         0.0840 
    111 H111       35.0632  -45.7503  -57.5684 H         1 UNK         0.0840 
    112 H112       32.7095  -48.5609  -55.1502 H         1 UNK         0.2987 
    113 H113       33.7875  -51.8860  -54.4369 H         1 UNK         0.0785 
    114 H114       35.2368  -49.2396  -55.0187 H         1 UNK         0.0798 
    115 H115       35.6370  -50.8148  -55.6853 H         1 UNK         0.0798 
    116 H116       35.8416  -50.5194  -53.9662 H         1 UNK         0.0798 
    117 H117       33.4659  -49.1871  -53.2509 H         1 UNK         0.3079 
    118 H118       30.6715  -50.2533  -51.2485 H         1 UNK         0.0794 
    119 H119       33.3726  -48.9074  -50.7074 H         1 UNK         0.0786 
    120 H120       32.7869  -50.3764  -49.9378 H         1 UNK         0.0786 
    121 H121       31.9544  -48.8536  -49.6681 H         1 UNK         0.0786 
    122 H122       31.9156  -47.9386  -52.7031 H         1 UNK         0.3032 
    123 H123       29.3820  -46.8699  -54.0342 H         1 UNK         0.1094 
    124 H124       27.6757  -46.2881  -52.3392 H         1 UNK         0.0794 
    125 H125       28.8791  -45.4887  -51.3476 H         1 UNK         0.0794 
    126 H126       28.4613  -44.8354  -52.9314 H         1 UNK         0.0794 
    127 H127       31.2705  -45.7399  -54.1666 H         1 UNK         0.3016 
@<TRIPOS>BOND
     1    1    2 1    
     2    1   67 1    
     3    1   68 1    
     4    1   69 1    
     5    2    3 2    
     6    2    4 am   BACKBONE|DICT|INTERRES
     7    4    5 1    
     8    4   70 1    
     9    5    6 1    
    10    5   65 1    
    11    5   71 1    
    12    6    7 1    
    13    6   72 1    
    14    6   73 1    
    15    7    8 1    
    16    8    9 1    
    17    8   74 1    
    18    8   75 1    
    19    9   10 ar   
    20    9   14 ar   
    21   10   11 ar   
    22   10   76 1    
    23   11   12 ar   
    24   11   48 1    
    25   12   13 ar   
    26   12   77 1    
    27   13   14 ar   
    28   13   15 1    
    29   14   78 1    
    30   15   16 1    
    31   15   79 1    
    32   15   80 1    
    33   16   17 1    
    34   17   18 1    
    35   17   81 1    
    36   17   82 1    
    37   18   19 1    
    38   18   22 1    
    39   18   83 1    
    40   19   20 am   BACKBONE|DICT|INTERRES
    41   19   21 2    
    42   20   84 1    
    43   20   85 1    
    44   22   23 am   BACKBONE|DICT|INTERRES
    45   22   86 1    
    46   23   24 2    
    47   23   25 1    
    48   25   26 1    
    49   25   27 1    
    50   25   87 1    
    51   26   88 1    
    52   26   89 1    
    53   26   90 1    
    54   27   28 am   BACKBONE|DICT|INTERRES
    55   27   91 1    
    56   28   29 2    
    57   28   30 1    
    58   30   31 1    
    59   30   32 1    
    60   30   92 1    
    61   31   93 1    
    62   31   94 1    
    63   31   95 1    
    64   32   33 am   BACKBONE|DICT|INTERRES
    65   32   96 1    
    66   33   34 2    
    67   33   35 1    
    68   35   36 1    
    69   35   37 1    
    70   35   97 1    
    71   36   98 1    
    72   36   99 1    
    73   36  100 1    
    74   37   38 am   BACKBONE|DICT|INTERRES
    75   37  101 1    
    76   38   39 2    
    77   38   40 1    
    78   40   41 1    
    79   40   42 1    
    80   40  102 1    
    81   41  103 1    
    82   41  104 1    
    83   41  105 1    
    84   42   43 am   BACKBONE|DICT|INTERRES
    85   42  106 1    
    86   43   44 2    
    87   43   45 1    
    88   45   46 1    
    89   45   49 1    
    90   45  107 1    
    91   46   47 1    
    92   46  108 1    
    93   46  109 1    
    94   47   48 1    
    95   48  110 1    
    96   48  111 1    
    97   49   50 am   BACKBONE|DICT|INTERRES
    98   49  112 1    
    99   50   51 2    
   100   50   52 1    
   101   52   53 1    
   102   52   54 1    
   103   52  113 1    
   104   53  114 1    
   105   53  115 1    
   106   53  116 1    
   107   54   55 am   BACKBONE|DICT|INTERRES
   108   54  117 1    
   109   55   56 2    
   110   55   57 1    
   111   57   58 1    
   112   57   59 1    
   113   57  118 1    
   114   58  119 1    
   115   58  120 1    
   116   58  121 1    
   117   59   60 am   BACKBONE|DICT|INTERRES
   118   59  122 1    
   119   60   61 2    
   120   60   62 1    
   121   62   63 1    
   122   62   64 1    
   123   62  123 1    
   124   63  124 1    
   125   63  125 1    
   126   63  126 1    
   127   64   65 am   BACKBONE|DICT|INTERRES
   128   64  127 1    
   129   65   66 2    
@<TRIPOS>SUBSTRUCTURE
     1 UNK         1 GROUP             0       ****    0 ROOT    
