@<TRIPOS>MOLECULE
3R134
127   129    1
SMALL
USER_CHARGES


@<TRIPOS>ATOM
      1 CA         36.5426  -45.9911  -56.3044 C.3       0 UNK        -0.1968 
      2 C          36.2027  -45.5234  -54.8968 C.2       0 UNK         0.4852 
      3 O          37.0919  -45.4669  -54.0469 O.2       0 UNK        -0.5359 
      4 N          34.9266  -45.1883  -54.6561 N.am      1 UNK        -0.4300 
      5 CA         34.3647  -44.7435  -53.3741 C.3       1 UNK         0.0863 
      6 C6         34.8967  -43.3485  -52.9455 C.3       11 UNK        -0.0953 
      7 S7         33.6892  -42.4023  -51.9587 S.3       11 UNK        -0.2369 
      8 C8         32.7460  -41.5230  -53.2499 C.3       11 UNK         0.0226 
      9 C9         31.7132  -42.4294  -53.9053 C.ar      11 UNK        -0.0699 
     10 C10        31.9437  -42.9803  -55.1714 C.ar      11 UNK        -0.0804 
     11 C11        31.0136  -43.8559  -55.7422 C.ar      11 UNK        -0.0871 
     12 C12        29.8361  -44.1539  -55.0511 C.ar      11 UNK        -0.1008 
     13 C13        29.5781  -43.5798  -53.8041 C.ar      11 UNK        -0.0735 
     14 C14        30.5236  -42.7250  -53.2324 C.ar      11 UNK        -0.0945 
     15 C15        28.2812  -43.8914  -53.0724 C.3       11 UNK         0.0169 
     16 S16        27.0130  -42.6025  -53.3103 S.3       11 UNK        -0.2669 
     17 C17        26.7259  -42.6368  -55.1154 C.3       11 UNK        -0.0850 
     18 CA         25.8402  -43.8243  -55.5892 C.3       10 UNK         0.0855 
     19 C          24.3212  -43.4945  -55.4682 C.2       10 UNK         0.5543 
     20 N          23.5974  -43.3057  -56.5653 N.am      10 UNK        -0.7343 
     21 O          23.7894  -43.4168  -54.3639 O.2       10 UNK        -0.5027 
     22 N          26.2712  -44.3029  -56.9160 N.am      10 UNK        -0.4495 
     23 C          25.9282  -45.4811  -57.4553 C.2       10 UNK         0.4903 
     24 O          25.2051  -46.3014  -56.8920 O.2       10 UNK        -0.4860 
     25 CA         26.4522  -45.8018  -58.8644 C.3       9 UNK         0.0227 
     26 CB         27.4619  -44.7778  -59.4258 C.3       9 UNK        -0.1964 
     27 N          27.0627  -47.1288  -58.8487 N.am      9 UNK        -0.4231 
     28 C          26.9423  -48.0558  -59.8050 C.2       9 UNK         0.5014 
     29 O          26.2776  -47.9036  -60.8315 O.2       9 UNK        -0.5270 
     30 CA         27.7111  -49.3733  -59.6000 C.3       8 UNK         0.0284 
     31 CB         29.1785  -49.2082  -60.0291 C.3       8 UNK        -0.1977 
     32 N          27.6599  -49.8823  -58.2266 N.am      8 UNK        -0.4342 
     33 C          26.5643  -50.3835  -57.6369 C.2       8 UNK         0.5039 
     34 O          25.4670  -50.4707  -58.1895 O.2       8 UNK        -0.5547 
     35 CA         26.7183  -50.8846  -56.1909 C.3       7 UNK         0.0281 
     36 CB         27.3649  -52.2791  -56.1557 C.3       7 UNK        -0.1963 
     37 N          27.5022  -49.9516  -55.3820 N.am      7 UNK        -0.4444 
     38 C          27.0121  -48.8262  -54.8461 C.2       7 UNK         0.5104 
     39 O          25.8142  -48.5472  -54.8314 O.2       7 UNK        -0.5100 
     40 CA         28.0149  -47.8378  -54.2210 C.3       6 UNK         0.0396 
     41 CB         28.0379  -47.9719  -52.6911 C.3       6 UNK        -0.1801 
     42 N          29.3803  -47.9692  -54.7347 N.am      6 UNK        -0.4747 
     43 C          29.7612  -47.6776  -55.9865 C.2       6 UNK         0.5012 
     44 O          29.0026  -47.2335  -56.8461 O.2       6 UNK        -0.5003 
     45 CA         31.2267  -47.9863  -56.3434 C.3       5 UNK         0.0782 
     46 C46        32.1810  -46.8712  -55.8399 C.3       11 UNK        -0.0868 
     47 S47        32.6433  -45.6624  -57.1236 S.3       11 UNK        -0.2515 
     48 C48        31.2629  -44.4723  -57.1118 C.3       11 UNK         0.0199 
     49 N          31.6129  -49.3020  -55.8261 N.am      5 UNK        -0.4607 
     50 C          31.1308  -50.4716  -56.2638 C.2       4 UNK         0.5031 
     51 O          30.3290  -50.5725  -57.1916 O.2       4 UNK        -0.5119 
     52 CA         31.5847  -51.7318  -55.5062 C.3       4 UNK         0.0263 
     53 CB         32.9165  -52.2490  -56.0717 C.3       4 UNK        -0.1967 
     54 N          31.7165  -51.5075  -54.0622 N.am      4 UNK        -0.4237 
     55 C          30.6824  -51.2686  -53.2421 C.2       3 UNK         0.4908 
     56 O          29.5086  -51.2760  -53.6092 O.2       3 UNK        -0.5102 
     57 CA         31.0063  -50.9186  -51.7771 C.3       3 UNK         0.0241 
     58 CB         31.1163  -52.1981  -50.9325 C.3       3 UNK        -0.1971 
     59 N          32.2126  -50.1000  -51.5887 N.am      3 UNK        -0.4139 
     60 C          32.4454  -48.9181  -52.1764 C.2       2 UNK         0.5016 
     61 O          31.6816  -48.4039  -53.0001 O.2       2 UNK        -0.5319 
     62 CA         33.7588  -48.2051  -51.8182 C.3       2 UNK         0.0286 
     63 CB         34.9920  -49.0787  -52.1211 C.3       2 UNK        -0.1963 
     64 N          33.8298  -46.9829  -52.6104 N.am      2 UNK        -0.4790 
     65 C          34.4681  -45.8503  -52.3012 C.2       1 UNK         0.5024 
     66 O          35.1176  -45.6877  -51.2665 O.2       1 UNK        -0.4888 
     67 H67        35.6820  -45.9489  -56.9713 H         1 UNK         0.0892 
     68 H68        37.3277  -45.3653  -56.7280 H         1 UNK         0.0892 
     69 H69        36.9021  -47.0194  -56.2806 H         1 UNK         0.0892 
     70 H70        34.2608  -45.2529  -55.4158 H         1 UNK         0.3107 
     71 H71        33.2969  -44.6474  -53.5630 H         1 UNK         0.0773 
     72 H72        35.1419  -42.7528  -53.8259 H         1 UNK         0.0680 
     73 H73        35.8309  -43.4323  -52.3876 H         1 UNK         0.0680 
     74 H74        33.4272  -41.1032  -53.9914 H         1 UNK         0.0650 
     75 H75        32.2371  -40.6737  -52.7917 H         1 UNK         0.0650 
     76 H76        32.8574  -42.7492  -55.7019 H         1 UNK         0.1397 
     77 H77        29.1064  -44.8202  -55.4908 H         1 UNK         0.1363 
     78 H78        30.3355  -42.2919  -52.2593 H         1 UNK         0.1355 
     79 H79        28.4818  -43.9919  -52.0048 H         1 UNK         0.0707 
     80 H80        27.8816  -44.8525  -53.3917 H         1 UNK         0.0707 
     81 H81        26.2856  -41.6823  -55.4112 H         1 UNK         0.1034 
     82 H82        27.6959  -42.6481  -55.6102 H         1 UNK         0.1034 
     83 H83        26.0124  -44.6624  -54.9113 H         1 UNK         0.0482 
     84 H84        22.6147  -43.0984  -56.4795 H         1 UNK         0.3460 
     85 H85        24.0216  -43.3735  -57.4761 H         1 UNK         0.3460 
     86 H86        26.8420  -43.6724  -57.4587 H         1 UNK         0.2989 
     87 H87        25.5761  -45.8096  -59.5158 H         1 UNK         0.0559 
     88 H88        27.0194  -43.7848  -59.5139 H         1 UNK         0.0848 
     89 H89        27.7903  -45.0633  -60.4254 H         1 UNK         0.0848 
     90 H90        28.3515  -44.6998  -58.8004 H         1 UNK         0.0848 
     91 H91        27.6471  -47.3305  -58.0375 H         1 UNK         0.3144 
     92 H92        27.2544  -50.1243  -60.2481 H         1 UNK         0.0727 
     93 H93        29.7171  -50.1545  -59.9730 H         1 UNK         0.0790 
     94 H94        29.7034  -48.4869  -59.4018 H         1 UNK         0.0790 
     95 H95        29.2473  -48.8565  -61.0594 H         1 UNK         0.0790 
     96 H96        28.5419  -49.9163  -57.7236 H         1 UNK         0.3215 
     97 H97        25.7190  -50.9709  -55.7581 H         1 UNK         0.0863 
     98 H98        27.4452  -52.6518  -55.1342 H         1 UNK         0.0808 
     99 H99        28.3647  -52.2787  -56.5892 H         1 UNK         0.0808 
    100 H100       26.7674  -52.9980  -56.7178 H         1 UNK         0.0808 
    101 H101       28.4823  -50.1629  -55.2439 H         1 UNK         0.3118 
    102 H102       27.6638  -46.8366  -54.4745 H         1 UNK         0.0546 
    103 H103       28.3634  -48.9652  -52.3816 H         1 UNK         0.0828 
    104 H104       27.0450  -47.8080  -52.2705 H         1 UNK         0.0828 
    105 H105       28.7085  -47.2418  -52.2374 H         1 UNK         0.0828 
    106 H106       30.0904  -48.2930  -54.0817 H         1 UNK         0.3005 
    107 H107       31.2893  -48.0455  -57.4326 H         1 UNK         0.1257 
    108 H108       33.1236  -47.3188  -55.5218 H         1 UNK         0.0775 
    109 H109       31.7981  -46.3599  -54.9547 H         1 UNK         0.0775 
    110 H110       31.4801  -43.6766  -57.8257 H         1 UNK         0.0840 
    111 H111       30.3671  -44.9709  -57.4827 H         1 UNK         0.0840 
    112 H112       32.1868  -49.3021  -54.9952 H         1 UNK         0.2987 
    113 H113       30.8258  -52.5018  -55.6621 H         1 UNK         0.0785 
    114 H114       32.8360  -52.4410  -57.1427 H         1 UNK         0.0798 
    115 H115       33.2112  -53.1858  -55.5983 H         1 UNK         0.0798 
    116 H116       33.7252  -51.5309  -55.9294 H         1 UNK         0.0798 
    117 H117       32.6500  -51.4977  -53.6779 H         1 UNK         0.3079 
    118 H118       30.1656  -50.3357  -51.3960 H         1 UNK         0.0794 
    119 H119       31.2214  -51.9670  -49.8723 H         1 UNK         0.0786 
    120 H120       31.9701  -52.8080  -51.2305 H         1 UNK         0.0786 
    121 H121       30.2223  -52.8145  -51.0393 H         1 UNK         0.0786 
    122 H122       32.8925  -50.4528  -50.9304 H         1 UNK         0.3032 
    123 H123       33.7294  -47.9516  -50.7560 H         1 UNK         0.1094 
    124 H124       35.0173  -49.3923  -53.1656 H         1 UNK         0.0794 
    125 H125       35.9171  -48.5392  -51.9163 H         1 UNK         0.0794 
    126 H126       35.0083  -49.9786  -51.5057 H         1 UNK         0.0794 
    127 H127       33.2309  -47.0055  -53.4243 H         1 UNK         0.3016 
@<TRIPOS>BOND
     1    1    2 1    
     2    1   67 1    
     3    1   68 1    
     4    1   69 1    
     5    2    3 2    
     6    2    4 am   BACKBONE|DICT|INTERRES
     7    4    5 1    
     8    4   70 1    
     9    5    6 1    
    10    5   65 1    
    11    5   71 1    
    12    6    7 1    
    13    6   72 1    
    14    6   73 1    
    15    7    8 1    
    16    8    9 1    
    17    8   74 1    
    18    8   75 1    
    19    9   10 ar   
    20    9   14 ar   
    21   10   11 ar   
    22   10   76 1    
    23   11   12 ar   
    24   11   48 1    
    25   12   13 ar   
    26   12   77 1    
    27   13   14 ar   
    28   13   15 1    
    29   14   78 1    
    30   15   16 1    
    31   15   79 1    
    32   15   80 1    
    33   16   17 1    
    34   17   18 1    
    35   17   81 1    
    36   17   82 1    
    37   18   19 1    
    38   18   22 1    
    39   18   83 1    
    40   19   20 am   BACKBONE|DICT|INTERRES
    41   19   21 2    
    42   20   84 1    
    43   20   85 1    
    44   22   23 am   BACKBONE|DICT|INTERRES
    45   22   86 1    
    46   23   24 2    
    47   23   25 1    
    48   25   26 1    
    49   25   27 1    
    50   25   87 1    
    51   26   88 1    
    52   26   89 1    
    53   26   90 1    
    54   27   28 am   BACKBONE|DICT|INTERRES
    55   27   91 1    
    56   28   29 2    
    57   28   30 1    
    58   30   31 1    
    59   30   32 1    
    60   30   92 1    
    61   31   93 1    
    62   31   94 1    
    63   31   95 1    
    64   32   33 am   BACKBONE|DICT|INTERRES
    65   32   96 1    
    66   33   34 2    
    67   33   35 1    
    68   35   36 1    
    69   35   37 1    
    70   35   97 1    
    71   36   98 1    
    72   36   99 1    
    73   36  100 1    
    74   37   38 am   BACKBONE|DICT|INTERRES
    75   37  101 1    
    76   38   39 2    
    77   38   40 1    
    78   40   41 1    
    79   40   42 1    
    80   40  102 1    
    81   41  103 1    
    82   41  104 1    
    83   41  105 1    
    84   42   43 am   BACKBONE|DICT|INTERRES
    85   42  106 1    
    86   43   44 2    
    87   43   45 1    
    88   45   46 1    
    89   45   49 1    
    90   45  107 1    
    91   46   47 1    
    92   46  108 1    
    93   46  109 1    
    94   47   48 1    
    95   48  110 1    
    96   48  111 1    
    97   49   50 am   BACKBONE|DICT|INTERRES
    98   49  112 1    
    99   50   51 2    
   100   50   52 1    
   101   52   53 1    
   102   52   54 1    
   103   52  113 1    
   104   53  114 1    
   105   53  115 1    
   106   53  116 1    
   107   54   55 am   BACKBONE|DICT|INTERRES
   108   54  117 1    
   109   55   56 2    
   110   55   57 1    
   111   57   58 1    
   112   57   59 1    
   113   57  118 1    
   114   58  119 1    
   115   58  120 1    
   116   58  121 1    
   117   59   60 am   BACKBONE|DICT|INTERRES
   118   59  122 1    
   119   60   61 2    
   120   60   62 1    
   121   62   63 1    
   122   62   64 1    
   123   62  123 1    
   124   63  124 1    
   125   63  125 1    
   126   63  126 1    
   127   64   65 am   BACKBONE|DICT|INTERRES
   128   64  127 1    
   129   65   66 2    
@<TRIPOS>SUBSTRUCTURE
     1 UNK         1 GROUP             0       ****    0 ROOT    
