@<TRIPOS>MOLECULE
3R134
127   129    1
SMALL
USER_CHARGES


@<TRIPOS>ATOM
      1 CA         39.4265  -45.4926  -54.3269 C.3       0 UNK        -0.1968 
      2 C          37.9979  -45.7252  -54.7971 C.2       0 UNK         0.4852 
      3 O          37.7348  -45.6741  -55.9999 O.2       0 UNK        -0.5359 
      4 N          37.0742  -45.9724  -53.8591 N.am      1 UNK        -0.4300 
      5 CA         35.6697  -46.2879  -54.1320 C.3       1 UNK         0.0863 
      6 C6         34.8040  -46.1172  -52.8573 C.3       11 UNK        -0.0953 
      7 S7         33.0399  -45.8545  -53.2390 S.3       11 UNK        -0.2369 
      8 C8         32.9655  -44.0413  -53.1501 C.3       11 UNK         0.0226 
      9 C9         31.5676  -43.5284  -53.4486 C.ar      11 UNK        -0.0699 
     10 C10        30.6182  -43.4524  -52.4273 C.ar      11 UNK        -0.0804 
     11 C11        29.3323  -42.9693  -52.6871 C.ar      11 UNK        -0.0871 
     12 C12        29.0043  -42.5417  -53.9771 C.ar      11 UNK        -0.1008 
     13 C13        29.9494  -42.6083  -55.0052 C.ar      11 UNK        -0.0735 
     14 C14        31.2266  -43.1108  -54.7376 C.ar      11 UNK        -0.0945 
     15 C15        29.6029  -42.1231  -56.4033 C.3       11 UNK         0.0169 
     16 S16        28.7894  -43.4269  -57.3710 S.3       11 UNK        -0.2669 
     17 C17        27.0381  -43.2150  -56.8852 C.3       11 UNK        -0.0850 
     18 CA         26.0479  -43.7529  -57.9507 C.3       10 UNK         0.0855 
     19 C          26.0873  -42.9046  -59.2585 C.2       10 UNK         0.5543 
     20 N          26.5986  -43.4206  -60.3700 N.am      10 UNK        -0.7343 
     21 O          25.6383  -41.7609  -59.2595 O.2       10 UNK        -0.5027 
     22 N          26.2104  -45.2042  -58.1143 N.am      10 UNK        -0.4495 
     23 C          25.4212  -46.0216  -58.8200 C.2       10 UNK         0.4903 
     24 O          24.4031  -45.6489  -59.4045 O.2       10 UNK        -0.4860 
     25 CA         25.8040  -47.5139  -58.8593 C.3       9 UNK         0.0227 
     26 CB         25.7083  -48.1028  -60.2822 C.3       9 UNK        -0.1964 
     27 N          27.0965  -47.8314  -58.2356 N.am      9 UNK        -0.4231 
     28 C          28.3362  -47.5225  -58.6488 C.2       9 UNK         0.5014 
     29 O          28.5790  -46.8804  -59.6710 O.2       9 UNK        -0.5270 
     30 CA         29.5092  -47.9902  -57.7603 C.3       8 UNK         0.0284 
     31 CB         30.1163  -46.7957  -57.0038 C.3       8 UNK        -0.1977 
     32 N          29.1286  -49.0141  -56.7836 N.am      8 UNK        -0.4342 
     33 C          28.7904  -50.2789  -57.0700 C.2       8 UNK         0.5039 
     34 O          28.8772  -50.7752  -58.1937 O.2       8 UNK        -0.5547 
     35 CA         28.1697  -51.1010  -55.9264 C.3       7 UNK         0.0281 
     36 CB         29.2405  -51.7908  -55.0686 C.3       7 UNK        -0.1963 
     37 N          27.3039  -50.2828  -55.0719 N.am      7 UNK        -0.4444 
     38 C          26.0878  -49.8458  -55.4265 C.2       7 UNK         0.5104 
     39 O          25.5437  -50.1301  -56.4923 O.2       7 UNK        -0.5100 
     40 CA         25.3626  -48.9139  -54.4424 C.3       6 UNK         0.0396 
     41 CB         24.4990  -49.7303  -53.4684 C.3       6 UNK        -0.1801 
     42 N          26.2764  -48.0586  -53.6823 N.am      6 UNK        -0.4747 
     43 C          26.9288  -46.9980  -54.1832 C.2       6 UNK         0.5012 
     44 O          26.8388  -46.6240  -55.3522 O.2       6 UNK        -0.5003 
     45 CA         27.8550  -46.2511  -53.2005 C.3       5 UNK         0.0782 
     46 C46        27.0018  -45.3047  -52.3107 C.3       11 UNK        -0.0868 
     47 S47        27.9099  -44.5534  -50.9163 S.3       11 UNK        -0.2515 
     48 C48        28.3064  -42.9008  -51.5666 C.3       11 UNK         0.0199 
     49 N          28.6955  -47.1646  -52.4109 N.am      5 UNK        -0.4607 
     50 C          29.5226  -48.0964  -52.9025 C.2       4 UNK         0.5031 
     51 O          29.6357  -48.3525  -54.1015 O.2       4 UNK        -0.5119 
     52 CA         30.2994  -48.9248  -51.8757 C.3       4 UNK         0.0263 
     53 CB         29.3529  -49.9103  -51.1586 C.3       4 UNK        -0.1967 
     54 N          31.3741  -49.6590  -52.5442 N.am      4 UNK        -0.4237 
     55 C          32.4080  -50.2456  -51.9320 C.2       3 UNK         0.4908 
     56 O          32.6055  -50.1771  -50.7180 O.2       3 UNK        -0.5102 
     57 CA         33.3901  -51.0616  -52.7921 C.3       3 UNK         0.0241 
     58 CB         32.7995  -52.4358  -53.1667 C.3       3 UNK        -0.1971 
     59 N          33.9200  -50.3558  -53.9650 N.am      3 UNK        -0.4139 
     60 C          33.2894  -49.9718  -55.0825 C.2       2 UNK         0.5016 
     61 O          32.0906  -50.1492  -55.2927 O.2       2 UNK        -0.5319 
     62 CA         34.1539  -49.2225  -56.1139 C.3       2 UNK         0.0286 
     63 CB         33.4421  -49.0357  -57.4661 C.3       2 UNK        -0.1963 
     64 N          34.5497  -47.9130  -55.5915 N.am      2 UNK        -0.4790 
     65 C          35.5336  -47.7122  -54.7059 C.2       1 UNK         0.5024 
     66 O          36.2706  -48.6139  -54.2956 O.2       1 UNK        -0.4888 
     67 H67        40.0906  -46.2381  -54.7632 H         1 UNK         0.0892 
     68 H68        39.7685  -44.5063  -54.6393 H         1 UNK         0.0892 
     69 H69        39.5145  -45.5538  -53.2423 H         1 UNK         0.0892 
     70 H70        37.3578  -46.0371  -52.8919 H         1 UNK         0.3107 
     71 H71        35.3241  -45.5771  -54.8864 H         1 UNK         0.0773 
     72 H72        35.1552  -45.2643  -52.2742 H         1 UNK         0.0680 
     73 H73        34.8961  -46.9793  -52.1931 H         1 UNK         0.0680 
     74 H74        33.6829  -43.6151  -53.8533 H         1 UNK         0.0650 
     75 H75        33.2734  -43.7132  -52.1561 H         1 UNK         0.0650 
     76 H76        30.8769  -43.7790  -51.4291 H         1 UNK         0.1397 
     77 H77        28.0158  -42.1549  -54.1832 H         1 UNK         0.1363 
     78 H78        31.9587  -43.1684  -55.5315 H         1 UNK         0.1355 
     79 H79        28.9747  -41.2325  -56.3557 H         1 UNK         0.0707 
     80 H80        30.5112  -41.8207  -56.9266 H         1 UNK         0.0707 
     81 H81        26.8801  -43.7337  -55.9381 H         1 UNK         0.1034 
     82 H82        26.8342  -42.1617  -56.6845 H         1 UNK         0.1034 
     83 H83        25.0432  -43.6139  -57.5474 H         1 UNK         0.0482 
     84 H84        26.9832  -44.3525  -60.3609 H         1 UNK         0.3460 
     85 H85        26.6187  -42.8690  -61.2128 H         1 UNK         0.3460 
     86 H86        27.0061  -45.6081  -57.6408 H         1 UNK         0.2989 
     87 H87        25.0569  -48.0216  -58.2482 H         1 UNK         0.0559 
     88 H88        24.6965  -48.0078  -60.6780 H         1 UNK         0.0848 
     89 H89        25.9584  -49.1637  -60.2893 H         1 UNK         0.0848 
     90 H90        26.3754  -47.5948  -60.9789 H         1 UNK         0.0848 
     91 H91        27.0281  -48.3275  -57.3574 H         1 UNK         0.3144 
     92 H92        30.2726  -48.4144  -58.4151 H         1 UNK         0.0727 
     93 H93        30.9345  -47.1027  -56.3523 H         1 UNK         0.0790 
     94 H94        30.5108  -46.0524  -57.6975 H         1 UNK         0.0790 
     95 H95        29.3749  -46.2976  -56.3782 H         1 UNK         0.0790 
     96 H96        29.1413  -48.7289  -55.8045 H         1 UNK         0.3215 
     97 H97        27.5594  -51.8821  -56.3856 H         1 UNK         0.0863 
     98 H98        28.7949  -52.5115  -54.3831 H         1 UNK         0.0808 
     99 H99        29.8029  -51.0725  -54.4751 H         1 UNK         0.0808 
    100 H100       29.9553  -52.3309  -55.6910 H         1 UNK         0.0808 
    101 H101       27.6962  -49.9559  -54.2015 H         1 UNK         0.3118 
    102 H102       24.6995  -48.2703  -55.0249 H         1 UNK         0.0546 
    103 H103       25.1034  -50.3868  -52.8411 H         1 UNK         0.0828 
    104 H104       23.7906  -50.3593  -54.0095 H         1 UNK         0.0828 
    105 H105       23.9171  -49.0813  -52.8138 H         1 UNK         0.0828 
    106 H106       26.4158  -48.2886  -52.7088 H         1 UNK         0.3005 
    107 H107       28.5345  -45.6405  -53.8003 H         1 UNK         0.1257 
    108 H108       26.1615  -45.8451  -51.8700 H         1 UNK         0.0775 
    109 H109       26.5581  -44.5145  -52.9196 H         1 UNK         0.0775 
    110 H110       27.3898  -42.4085  -51.8956 H         1 UNK         0.0840 
    111 H111       28.7073  -42.2900  -50.7564 H         1 UNK         0.0840 
    112 H112       28.6672  -47.0148  -51.4124 H         1 UNK         0.2987 
    113 H113       30.7409  -48.2377  -51.1507 H         1 UNK         0.0785 
    114 H114       28.5295  -49.3892  -50.6689 H         1 UNK         0.0798 
    115 H115       29.8733  -50.4739  -50.3843 H         1 UNK         0.0798 
    116 H116       28.9187  -50.6283  -51.8555 H         1 UNK         0.0798 
    117 H117       31.3117  -49.7017  -53.5614 H         1 UNK         0.3079 
    118 H118       34.2604  -51.2523  -52.1617 H         1 UNK         0.0794 
    119 H119       33.5308  -53.0513  -53.6903 H         1 UNK         0.0786 
    120 H120       31.9206  -52.3458  -53.8047 H         1 UNK         0.0786 
    121 H121       32.4943  -52.9834  -52.2741 H         1 UNK         0.0786 
    122 H122       34.8914  -50.0705  -53.8876 H         1 UNK         0.3032 
    123 H123       35.0469  -49.8261  -56.2935 H         1 UNK         0.1094 
    124 H124       32.5500  -48.4189  -57.3725 H         1 UNK         0.0794 
    125 H125       34.0987  -48.5667  -58.1990 H         1 UNK         0.0794 
    126 H126       33.1295  -49.9962  -57.8780 H         1 UNK         0.0794 
    127 H127       33.9499  -47.1359  -55.8307 H         1 UNK         0.3016 
@<TRIPOS>BOND
     1    1    2 1    
     2    1   67 1    
     3    1   68 1    
     4    1   69 1    
     5    2    3 2    
     6    2    4 am   BACKBONE|DICT|INTERRES
     7    4    5 1    
     8    4   70 1    
     9    5    6 1    
    10    5   65 1    
    11    5   71 1    
    12    6    7 1    
    13    6   72 1    
    14    6   73 1    
    15    7    8 1    
    16    8    9 1    
    17    8   74 1    
    18    8   75 1    
    19    9   10 ar   
    20    9   14 ar   
    21   10   11 ar   
    22   10   76 1    
    23   11   12 ar   
    24   11   48 1    
    25   12   13 ar   
    26   12   77 1    
    27   13   14 ar   
    28   13   15 1    
    29   14   78 1    
    30   15   16 1    
    31   15   79 1    
    32   15   80 1    
    33   16   17 1    
    34   17   18 1    
    35   17   81 1    
    36   17   82 1    
    37   18   19 1    
    38   18   22 1    
    39   18   83 1    
    40   19   20 am   BACKBONE|DICT|INTERRES
    41   19   21 2    
    42   20   84 1    
    43   20   85 1    
    44   22   23 am   BACKBONE|DICT|INTERRES
    45   22   86 1    
    46   23   24 2    
    47   23   25 1    
    48   25   26 1    
    49   25   27 1    
    50   25   87 1    
    51   26   88 1    
    52   26   89 1    
    53   26   90 1    
    54   27   28 am   BACKBONE|DICT|INTERRES
    55   27   91 1    
    56   28   29 2    
    57   28   30 1    
    58   30   31 1    
    59   30   32 1    
    60   30   92 1    
    61   31   93 1    
    62   31   94 1    
    63   31   95 1    
    64   32   33 am   BACKBONE|DICT|INTERRES
    65   32   96 1    
    66   33   34 2    
    67   33   35 1    
    68   35   36 1    
    69   35   37 1    
    70   35   97 1    
    71   36   98 1    
    72   36   99 1    
    73   36  100 1    
    74   37   38 am   BACKBONE|DICT|INTERRES
    75   37  101 1    
    76   38   39 2    
    77   38   40 1    
    78   40   41 1    
    79   40   42 1    
    80   40  102 1    
    81   41  103 1    
    82   41  104 1    
    83   41  105 1    
    84   42   43 am   BACKBONE|DICT|INTERRES
    85   42  106 1    
    86   43   44 2    
    87   43   45 1    
    88   45   46 1    
    89   45   49 1    
    90   45  107 1    
    91   46   47 1    
    92   46  108 1    
    93   46  109 1    
    94   47   48 1    
    95   48  110 1    
    96   48  111 1    
    97   49   50 am   BACKBONE|DICT|INTERRES
    98   49  112 1    
    99   50   51 2    
   100   50   52 1    
   101   52   53 1    
   102   52   54 1    
   103   52  113 1    
   104   53  114 1    
   105   53  115 1    
   106   53  116 1    
   107   54   55 am   BACKBONE|DICT|INTERRES
   108   54  117 1    
   109   55   56 2    
   110   55   57 1    
   111   57   58 1    
   112   57   59 1    
   113   57  118 1    
   114   58  119 1    
   115   58  120 1    
   116   58  121 1    
   117   59   60 am   BACKBONE|DICT|INTERRES
   118   59  122 1    
   119   60   61 2    
   120   60   62 1    
   121   62   63 1    
   122   62   64 1    
   123   62  123 1    
   124   63  124 1    
   125   63  125 1    
   126   63  126 1    
   127   64   65 am   BACKBONE|DICT|INTERRES
   128   64  127 1    
   129   65   66 2    
@<TRIPOS>SUBSTRUCTURE
     1 UNK         1 GROUP             0       ****    0 ROOT    
