@<TRIPOS>MOLECULE
3R134
127   129    1
SMALL
USER_CHARGES


@<TRIPOS>ATOM
      1 CA         32.1586  -46.1766  -57.6350 C.3       0 UNK        -0.1968 
      2 C          33.2038  -45.8886  -56.5738 C.2       0 UNK         0.4852 
      3 O          34.3942  -45.8389  -56.8872 O.2       0 UNK        -0.5359 
      4 N          32.7647  -45.7117  -55.3212 N.am      1 UNK        -0.4300 
      5 CA         33.5663  -45.3809  -54.1401 C.3       1 UNK         0.0863 
      6 C6         34.4023  -44.0799  -54.3146 C.3       11 UNK        -0.0953 
      7 S7         34.8216  -43.2872  -52.7292 S.3       11 UNK        -0.2369 
      8 C8         33.5486  -41.9883  -52.6371 C.3       11 UNK         0.0226 
      9 C9         32.1551  -42.5821  -52.4980 C.ar      11 UNK        -0.0699 
     10 C10        31.7738  -43.1812  -51.2962 C.ar      11 UNK        -0.0804 
     11 C11        30.5065  -43.7510  -51.1563 C.ar      11 UNK        -0.0871 
     12 C12        29.6028  -43.6937  -52.2239 C.ar      11 UNK        -0.1008 
     13 C13        29.9836  -43.1213  -53.4427 C.ar      11 UNK        -0.0735 
     14 C14        31.2582  -42.5596  -53.5702 C.ar      11 UNK        -0.0945 
     15 C15        29.0347  -43.1137  -54.6327 C.3       11 UNK         0.0169 
     16 S16        29.3272  -44.5563  -55.7090 S.3       11 UNK        -0.2669 
     17 C17        28.6410  -43.9863  -57.3071 C.3       11 UNK        -0.0850 
     18 CA         27.4507  -44.8455  -57.8325 C.3       10 UNK         0.0855 
     19 C          26.7584  -44.2126  -59.0805 C.2       10 UNK         0.5543 
     20 N          26.2734  -44.9878  -60.0446 N.am      10 UNK        -0.7343 
     21 O          26.6252  -42.9941  -59.1640 O.2       10 UNK        -0.5027 
     22 N          27.7695  -46.2775  -57.9795 N.am      10 UNK        -0.4495 
     23 C          28.6782  -46.8044  -58.8131 C.2       10 UNK         0.4903 
     24 O          29.4451  -46.1414  -59.5107 O.2       10 UNK        -0.4860 
     25 CA         28.7195  -48.3394  -58.9190 C.3       9 UNK         0.0227 
     26 CB         29.7461  -48.9266  -57.9390 C.3       9 UNK        -0.1964 
     27 N          27.4255  -48.9848  -58.6927 N.am      9 UNK        -0.4231 
     28 C          26.3204  -48.8291  -59.4308 C.2       9 UNK         0.5014 
     29 O          26.2392  -48.0587  -60.3884 O.2       9 UNK        -0.5270 
     30 CA         25.0900  -49.6599  -59.0230 C.3       8 UNK         0.0284 
     31 CB         25.2383  -51.1301  -59.4619 C.3       8 UNK        -0.1977 
     32 N          24.7352  -49.5523  -57.6001 N.am      8 UNK        -0.4342 
     33 C          25.4301  -49.9404  -56.5213 C.2       8 UNK         0.5039 
     34 O          26.5304  -50.4961  -56.5644 O.2       8 UNK        -0.5547 
     35 CA         24.8082  -49.5968  -55.1591 C.3       7 UNK         0.0281 
     36 CB         24.9545  -50.7640  -54.1674 C.3       7 UNK        -0.1963 
     37 N          25.4081  -48.3988  -54.5701 N.am      7 UNK        -0.4444 
     38 C          25.4253  -47.1647  -55.0867 C.2       7 UNK         0.5104 
     39 O          24.9538  -46.8719  -56.1852 O.2       7 UNK        -0.5100 
     40 CA         26.0587  -46.0517  -54.2322 C.3       6 UNK         0.0396 
     41 CB         25.0778  -45.5686  -53.1468 C.3       6 UNK        -0.1801 
     42 N          27.3779  -46.3536  -53.6588 N.am      6 UNK        -0.4747 
     43 C          27.7009  -47.2601  -52.7269 C.2       6 UNK         0.5012 
     44 O          26.9259  -48.1132  -52.2888 O.2       6 UNK        -0.5003 
     45 CA         29.1162  -47.1700  -52.1377 C.3       5 UNK         0.0782 
     46 C46        29.0238  -46.9168  -50.6115 C.3       11 UNK        -0.0868 
     47 S47        30.5536  -46.2204  -49.9133 S.3       11 UNK        -0.2515 
     48 C48        30.1412  -44.4434  -49.8523 C.3       11 UNK         0.0199 
     49 N          29.8316  -48.4003  -52.4649 N.am      5 UNK        -0.4607 
     50 C          30.5034  -48.5839  -53.6053 C.2       4 UNK         0.5031 
     51 O          30.7038  -47.6980  -54.4421 O.2       4 UNK        -0.5119 
     52 CA         30.9997  -50.0065  -53.8770 C.3       4 UNK         0.0263 
     53 CB         29.8524  -50.8716  -54.4408 C.3       4 UNK        -0.1967 
     54 N          32.1091  -49.9185  -54.8206 N.am      4 UNK        -0.4237 
     55 C          32.9309  -50.9087  -55.1859 C.2       3 UNK         0.4908 
     56 O          32.8358  -52.0710  -54.7902 O.2       3 UNK        -0.5102 
     57 CA         34.0730  -50.5241  -56.1400 C.3       3 UNK         0.0241 
     58 CB         33.5430  -50.2301  -57.5533 C.3       3 UNK        -0.1971 
     59 N          34.8324  -49.3728  -55.6480 N.am      3 UNK        -0.4139 
     60 C          35.6683  -49.4053  -54.5994 C.2       2 UNK         0.5016 
     61 O          35.9337  -50.4240  -53.9604 O.2       2 UNK        -0.5319 
     62 CA         36.3219  -48.0744  -54.1950 C.3       2 UNK         0.0286 
     63 CB         37.6467  -47.8701  -54.9470 C.3       2 UNK        -0.1963 
     64 N          35.4457  -46.9277  -54.4392 N.am      2 UNK        -0.4790 
     65 C          34.4010  -46.5886  -53.6729 C.2       1 UNK         0.5024 
     66 O          34.0751  -47.1996  -52.6548 O.2       1 UNK        -0.4888 
     67 H67        31.2155  -46.4862  -57.1865 H         1 UNK         0.0892 
     68 H68        31.9725  -45.2829  -58.2298 H         1 UNK         0.0892 
     69 H69        32.5001  -46.9646  -58.3047 H         1 UNK         0.0892 
     70 H70        31.7805  -45.8651  -55.1275 H         1 UNK         0.3107 
     71 H71        32.8265  -45.2012  -53.3583 H         1 UNK         0.0773 
     72 H72        33.8469  -43.3608  -54.9182 H         1 UNK         0.0680 
     73 H73        35.3259  -44.2601  -54.8664 H         1 UNK         0.0680 
     74 H74        33.6159  -41.3472  -53.5175 H         1 UNK         0.0650 
     75 H75        33.7565  -41.3504  -51.7769 H         1 UNK         0.0650 
     76 H76        32.4773  -43.2229  -50.4756 H         1 UNK         0.1397 
     77 H77        28.6153  -44.1200  -52.1151 H         1 UNK         0.1363 
     78 H78        31.5560  -42.1178  -54.5113 H         1 UNK         0.1355 
     79 H79        27.9956  -43.1123  -54.2995 H         1 UNK         0.0707 
     80 H80        29.1801  -42.1913  -55.1969 H         1 UNK         0.0707 
     81 H81        28.3296  -42.9462  -57.2014 H         1 UNK         0.1034 
     82 H82        29.4504  -43.9702  -58.0381 H         1 UNK         0.1034 
     83 H83        26.6761  -44.8077  -57.0693 H         1 UNK         0.0482 
     84 H84        26.3672  -45.9956  -60.0058 H         1 UNK         0.3460 
     85 H85        25.8193  -44.5593  -60.8352 H         1 UNK         0.3460 
     86 H86        27.1603  -46.9084  -57.4793 H         1 UNK         0.2989 
     87 H87        29.0314  -48.5937  -59.9339 H         1 UNK         0.0559 
     88 H88        30.7524  -48.6146  -58.2102 H         1 UNK         0.0848 
     89 H89        29.7387  -50.0167  -57.9521 H         1 UNK         0.0848 
     90 H90        29.5611  -48.5992  -56.9148 H         1 UNK         0.0848 
     91 H91        27.3501  -49.6205  -57.8977 H         1 UNK         0.3144 
     92 H92        24.2411  -49.2437  -59.5682 H         1 UNK         0.0727 
     93 H93        24.3329  -51.6990  -59.2504 H         1 UNK         0.0790 
     94 H94        26.0698  -51.6272  -58.9615 H         1 UNK         0.0790 
     95 H95        25.4202  -51.1982  -60.5353 H         1 UNK         0.0790 
     96 H96        23.8886  -49.0271  -57.4243 H         1 UNK         0.3215 
     97 H97        23.7422  -49.4048  -55.2974 H         1 UNK         0.0863 
     98 H98        24.4387  -50.5556  -53.2299 H         1 UNK         0.0808 
     99 H99        26.0009  -50.9674  -53.9346 H         1 UNK         0.0808 
    100 H100       24.5271  -51.6804  -54.5765 H         1 UNK         0.0808 
    101 H101       25.8678  -48.5125  -53.6681 H         1 UNK         0.3118 
    102 H102       26.2263  -45.2047  -54.8966 H         1 UNK         0.0546 
    103 H103       24.1310  -45.2568  -53.5898 H         1 UNK         0.0828 
    104 H104       25.4775  -44.7118  -52.6045 H         1 UNK         0.0828 
    105 H105       24.8517  -46.3494  -52.4201 H         1 UNK         0.0828 
    106 H106       28.1248  -45.7750  -54.0251 H         1 UNK         0.3005 
    107 H107       29.6371  -46.3303  -52.6001 H         1 UNK         0.1257 
    108 H108       28.7939  -47.8434  -50.0820 H         1 UNK         0.0775 
    109 H109       28.2021  -46.2393  -50.3705 H         1 UNK         0.0775 
    110 H110       29.0869  -44.2915  -49.6174 H         1 UNK         0.0840 
    111 H111       30.6935  -43.9901  -49.0276 H         1 UNK         0.0840 
    112 H112       29.6788  -49.1827  -51.8453 H         1 UNK         0.2987 
    113 H113       31.3687  -50.4376  -52.9442 H         1 UNK         0.0785 
    114 H114       30.1640  -51.9032  -54.6018 H         1 UNK         0.0798 
    115 H115       29.4814  -50.4846  -55.3898 H         1 UNK         0.0798 
    116 H116       29.0060  -50.9001  -53.7533 H         1 UNK         0.0798 
    117 H117       32.2560  -48.9821  -55.1748 H         1 UNK         0.3079 
    118 H118       34.7513  -51.3779  -56.2064 H         1 UNK         0.0794 
    119 H119       32.9452  -51.0621  -57.9283 H         1 UNK         0.0786 
    120 H120       34.3611  -50.0773  -58.2575 H         1 UNK         0.0786 
    121 H121       32.9153  -49.3403  -57.5743 H         1 UNK         0.0786 
    122 H122       34.6974  -48.4901  -56.1193 H         1 UNK         0.3032 
    123 H123       36.5390  -48.1257  -53.1253 H         1 UNK         0.1094 
    124 H124       38.1537  -46.9633  -54.6164 H         1 UNK         0.0794 
    125 H125       38.3280  -48.7036  -54.7702 H         1 UNK         0.0794 
    126 H126       37.4944  -47.7957  -56.0246 H         1 UNK         0.0794 
    127 H127       35.5762  -46.4096  -55.3026 H         1 UNK         0.3016 
@<TRIPOS>BOND
     1    1    2 1    
     2    1   67 1    
     3    1   68 1    
     4    1   69 1    
     5    2    3 2    
     6    2    4 am   BACKBONE|DICT|INTERRES
     7    4    5 1    
     8    4   70 1    
     9    5    6 1    
    10    5   65 1    
    11    5   71 1    
    12    6    7 1    
    13    6   72 1    
    14    6   73 1    
    15    7    8 1    
    16    8    9 1    
    17    8   74 1    
    18    8   75 1    
    19    9   10 ar   
    20    9   14 ar   
    21   10   11 ar   
    22   10   76 1    
    23   11   12 ar   
    24   11   48 1    
    25   12   13 ar   
    26   12   77 1    
    27   13   14 ar   
    28   13   15 1    
    29   14   78 1    
    30   15   16 1    
    31   15   79 1    
    32   15   80 1    
    33   16   17 1    
    34   17   18 1    
    35   17   81 1    
    36   17   82 1    
    37   18   19 1    
    38   18   22 1    
    39   18   83 1    
    40   19   20 am   BACKBONE|DICT|INTERRES
    41   19   21 2    
    42   20   84 1    
    43   20   85 1    
    44   22   23 am   BACKBONE|DICT|INTERRES
    45   22   86 1    
    46   23   24 2    
    47   23   25 1    
    48   25   26 1    
    49   25   27 1    
    50   25   87 1    
    51   26   88 1    
    52   26   89 1    
    53   26   90 1    
    54   27   28 am   BACKBONE|DICT|INTERRES
    55   27   91 1    
    56   28   29 2    
    57   28   30 1    
    58   30   31 1    
    59   30   32 1    
    60   30   92 1    
    61   31   93 1    
    62   31   94 1    
    63   31   95 1    
    64   32   33 am   BACKBONE|DICT|INTERRES
    65   32   96 1    
    66   33   34 2    
    67   33   35 1    
    68   35   36 1    
    69   35   37 1    
    70   35   97 1    
    71   36   98 1    
    72   36   99 1    
    73   36  100 1    
    74   37   38 am   BACKBONE|DICT|INTERRES
    75   37  101 1    
    76   38   39 2    
    77   38   40 1    
    78   40   41 1    
    79   40   42 1    
    80   40  102 1    
    81   41  103 1    
    82   41  104 1    
    83   41  105 1    
    84   42   43 am   BACKBONE|DICT|INTERRES
    85   42  106 1    
    86   43   44 2    
    87   43   45 1    
    88   45   46 1    
    89   45   49 1    
    90   45  107 1    
    91   46   47 1    
    92   46  108 1    
    93   46  109 1    
    94   47   48 1    
    95   48  110 1    
    96   48  111 1    
    97   49   50 am   BACKBONE|DICT|INTERRES
    98   49  112 1    
    99   50   51 2    
   100   50   52 1    
   101   52   53 1    
   102   52   54 1    
   103   52  113 1    
   104   53  114 1    
   105   53  115 1    
   106   53  116 1    
   107   54   55 am   BACKBONE|DICT|INTERRES
   108   54  117 1    
   109   55   56 2    
   110   55   57 1    
   111   57   58 1    
   112   57   59 1    
   113   57  118 1    
   114   58  119 1    
   115   58  120 1    
   116   58  121 1    
   117   59   60 am   BACKBONE|DICT|INTERRES
   118   59  122 1    
   119   60   61 2    
   120   60   62 1    
   121   62   63 1    
   122   62   64 1    
   123   62  123 1    
   124   63  124 1    
   125   63  125 1    
   126   63  126 1    
   127   64   65 am   BACKBONE|DICT|INTERRES
   128   64  127 1    
   129   65   66 2    
@<TRIPOS>SUBSTRUCTURE
     1 UNK         1 GROUP             0       ****    0 ROOT    
