@<TRIPOS>MOLECULE
3R134
127   129    1
SMALL
USER_CHARGES


@<TRIPOS>ATOM
      1 CA         37.7870  -45.2361  -52.7789 C.3       0 UNK        -0.1968 
      2 C          36.3041  -45.5569  -52.8915 C.2       0 UNK         0.4852 
      3 O          35.9091  -46.3101  -53.7809 O.2       0 UNK        -0.5359 
      4 N          35.4837  -44.9930  -51.9945 N.am      1 UNK        -0.4300 
      5 CA         34.0255  -45.1777  -51.9544 C.3       1 UNK         0.0863 
      6 C6         33.3199  -44.0621  -51.1422 C.3       11 UNK        -0.0953 
      7 S7         33.7076  -42.3923  -51.7725 S.3       11 UNK        -0.2369 
      8 C8         32.0944  -41.8294  -52.4191 C.3       11 UNK         0.0226 
      9 C9         31.5270  -42.6614  -53.5700 C.ar      11 UNK        -0.0699 
     10 C10        32.3538  -43.2817  -54.5161 C.ar      11 UNK        -0.0804 
     11 C11        31.8085  -44.0401  -55.5570 C.ar      11 UNK        -0.0871 
     12 C12        30.4202  -44.1346  -55.6763 C.ar      11 UNK        -0.1008 
     13 C13        29.5806  -43.5198  -54.7448 C.ar      11 UNK        -0.0735 
     14 C14        30.1392  -42.7854  -53.6955 C.ar      11 UNK        -0.0945 
     15 C15        28.0741  -43.6873  -54.8564 C.3       11 UNK         0.0169 
     16 S16        27.3671  -42.6299  -56.1534 S.3       11 UNK        -0.2669 
     17 C17        25.5996  -43.1092  -56.1047 C.3       11 UNK        -0.0850 
     18 CA         25.3050  -44.6372  -56.2427 C.3       10 UNK         0.0855 
     19 C          23.7806  -44.9632  -56.2224 C.2       10 UNK         0.5543 
     20 N          23.3402  -46.0990  -56.7496 N.am      10 UNK        -0.7343 
     21 O          22.9803  -44.1875  -55.7043 O.2       10 UNK        -0.5027 
     22 N          26.0538  -45.2711  -57.3408 N.am      10 UNK        -0.4495 
     23 C          25.9137  -45.0004  -58.6461 C.2       10 UNK         0.4903 
     24 O          25.0901  -44.2098  -59.1075 O.2       10 UNK        -0.4860 
     25 CA         26.8568  -45.7394  -59.6043 C.3       9 UNK         0.0227 
     26 CB         28.2423  -45.0700  -59.6244 C.3       9 UNK        -0.1964 
     27 N          26.9864  -47.1450  -59.2136 N.am      9 UNK        -0.4231 
     28 C          26.4245  -48.1671  -59.8715 C.2       9 UNK         0.5014 
     29 O          25.8092  -48.0470  -60.9323 O.2       9 UNK        -0.5270 
     30 CA         26.5633  -49.5707  -59.2571 C.3       8 UNK         0.0284 
     31 CB         27.7929  -50.2966  -59.8279 C.3       8 UNK        -0.1977 
     32 N          26.6058  -49.6091  -57.7913 N.am      8 UNK        -0.4342 
     33 C          25.5830  -49.2693  -56.9915 C.2       8 UNK         0.5039 
     34 O          24.5559  -48.7200  -57.3898 O.2       8 UNK        -0.5547 
     35 CA         25.7192  -49.6098  -55.5009 C.3       7 UNK         0.0281 
     36 CB         25.6515  -51.1305  -55.2794 C.3       7 UNK        -0.1963 
     37 N          26.9772  -49.0969  -54.9687 N.am      7 UNK        -0.4444 
     38 C          27.0977  -47.9862  -54.2295 C.2       7 UNK         0.5104 
     39 O          26.1473  -47.3253  -53.8111 O.2       7 UNK        -0.5100 
     40 CA         28.5323  -47.5107  -53.9310 C.3       6 UNK         0.0396 
     41 CB         29.0200  -48.1088  -52.6037 C.3       6 UNK        -0.1801 
     42 N          29.4933  -47.8281  -54.9938 N.am      6 UNK        -0.4747 
     43 C          29.3663  -47.4871  -56.2880 C.2       6 UNK         0.5012 
     44 O          28.4302  -46.8192  -56.7303 O.2       6 UNK        -0.5003 
     45 CA         30.3925  -48.0621  -57.2865 C.3       5 UNK         0.0782 
     46 C46        31.4662  -47.0253  -57.6996 C.3       11 UNK        -0.0868 
     47 S47        32.6479  -46.5667  -56.3806 S.3       11 UNK        -0.2515 
     48 C48        32.7213  -44.7493  -56.5499 C.3       11 UNK         0.0199 
     49 N          30.9692  -49.3415  -56.8602 N.am      5 UNK        -0.4607 
     50 C          30.2687  -50.4524  -56.5848 C.2       4 UNK         0.5031 
     51 O          29.0460  -50.5364  -56.7197 O.2       4 UNK        -0.5119 
     52 CA         31.0409  -51.6573  -56.0178 C.3       4 UNK         0.0263 
     53 CB         31.3136  -52.6799  -57.1319 C.3       4 UNK        -0.1967 
     54 N          32.3027  -51.3282  -55.3393 N.am      4 UNK        -0.4237 
     55 C          32.4354  -50.4965  -54.2957 C.2       3 UNK         0.4908 
     56 O          31.5043  -49.8475  -53.8115 O.2       3 UNK        -0.5102 
     57 CA         33.8490  -50.3500  -53.7204 C.3       3 UNK         0.0241 
     58 CB         34.7894  -49.6369  -54.7112 C.3       3 UNK        -0.1971 
     59 N          33.7744  -49.5810  -52.4834 N.am      3 UNK        -0.4139 
     60 C          34.6331  -49.6341  -51.4622 C.2       2 UNK         0.5016 
     61 O          35.6176  -50.3758  -51.4332 O.2       2 UNK        -0.5319 
     62 CA         34.3586  -48.6604  -50.2988 C.3       2 UNK         0.0286 
     63 CB         35.2786  -48.9054  -49.0879 C.3       2 UNK        -0.1963 
     64 N          34.5198  -47.2733  -50.7415 N.am      2 UNK        -0.4790 
     65 C          33.6133  -46.5728  -51.4393 C.2       1 UNK         0.5024 
     66 O          32.4886  -47.0022  -51.6959 O.2       1 UNK        -0.4888 
     67 H67        38.1395  -44.7685  -53.6978 H         1 UNK         0.0892 
     68 H68        38.3576  -46.1510  -52.6213 H         1 UNK         0.0892 
     69 H69        37.9971  -44.5581  -51.9518 H         1 UNK         0.0892 
     70 H70        35.8607  -44.3623  -51.3009 H         1 UNK         0.3107 
     71 H71        33.6616  -45.1278  -52.9817 H         1 UNK         0.0773 
     72 H72        32.2376  -44.2056  -51.1561 H         1 UNK         0.0680 
     73 H73        33.6181  -44.1047  -50.0931 H         1 UNK         0.0680 
     74 H74        32.2026  -40.8000  -52.7624 H         1 UNK         0.0650 
     75 H75        31.3877  -41.8041  -51.5880 H         1 UNK         0.0650 
     76 H76        33.4275  -43.1849  -54.4374 H         1 UNK         0.1397 
     77 H77        29.9865  -44.6972  -56.4888 H         1 UNK         0.1363 
     78 H78        29.4897  -42.3086  -52.9739 H         1 UNK         0.1355 
     79 H79        27.5855  -43.4770  -53.9038 H         1 UNK         0.0707 
     80 H80        27.8629  -44.7270  -55.0955 H         1 UNK         0.0707 
     81 H81        25.0897  -42.5606  -56.8985 H         1 UNK         0.1034 
     82 H82        25.1797  -42.7320  -55.1705 H         1 UNK         0.1034 
     83 H83        25.6707  -45.1154  -55.3357 H         1 UNK         0.0482 
     84 H84        22.3529  -46.2962  -56.7247 H         1 UNK         0.3460 
     85 H85        23.9758  -46.7951  -57.1236 H         1 UNK         0.3460 
     86 H86        26.7957  -45.9014  -57.0544 H         1 UNK         0.2989 
     87 H87        26.4383  -45.6590  -60.6097 H         1 UNK         0.0559 
     88 H88        28.9282  -45.5952  -60.2890 H         1 UNK         0.0848 
     89 H89        28.6959  -45.0315  -58.6343 H         1 UNK         0.0848 
     90 H90        28.1679  -44.0419  -59.9812 H         1 UNK         0.0848 
     91 H91        27.4458  -47.3235  -58.3273 H         1 UNK         0.3144 
     92 H92        25.6788  -50.1349  -59.5612 H         1 UNK         0.0727 
     93 H93        27.8488  -51.3247  -59.4693 H         1 UNK         0.0790 
     94 H94        28.7232  -49.7988  -59.5582 H         1 UNK         0.0790 
     95 H95        27.7505  -50.3369  -60.9173 H         1 UNK         0.0790 
     96 H96        27.4319  -50.0395  -57.3783 H         1 UNK         0.3215 
     97 H97        24.8730  -49.1576  -54.9783 H         1 UNK         0.0863 
     98 H98        25.6711  -51.3739  -54.2170 H         1 UNK         0.0808 
     99 H99        26.4831  -51.6521  -55.7554 H         1 UNK         0.0808 
    100 H100       24.7286  -51.5435  -55.6888 H         1 UNK         0.0808 
    101 H101       27.8251  -49.5499  -55.2893 H         1 UNK         0.3118 
    102 H102       28.5137  -46.4276  -53.8171 H         1 UNK         0.0546 
    103 H103       29.0782  -49.1971  -52.6479 H         1 UNK         0.0828 
    104 H104       28.3463  -47.8495  -51.7861 H         1 UNK         0.0828 
    105 H105       30.0078  -47.7323  -52.3401 H         1 UNK         0.0828 
    106 H106       30.2851  -48.4028  -54.7217 H         1 UNK         0.3005 
    107 H107       29.8192  -48.2823  -58.1881 H         1 UNK         0.1257 
    108 H108       32.0485  -47.4242  -58.5317 H         1 UNK         0.0775 
    109 H109       30.9825  -46.1314  -58.0960 H         1 UNK         0.0775 
    110 H110       33.7565  -44.4417  -56.3937 H         1 UNK         0.0840 
    111 H111       32.4731  -44.4442  -57.5672 H         1 UNK         0.0840 
    112 H112       31.9651  -49.3460  -56.6962 H         1 UNK         0.2987 
    113 H113       30.3903  -52.1257  -55.2765 H         1 UNK         0.0785 
    114 H114       31.9908  -52.2818  -57.8888 H         1 UNK         0.0798 
    115 H115       30.3892  -52.9623  -57.6385 H         1 UNK         0.0798 
    116 H116       31.7529  -53.5949  -56.7339 H         1 UNK         0.0798 
    117 H117       33.1253  -51.8088  -55.6752 H         1 UNK         0.3079 
    118 H118       34.2302  -51.3498  -53.5020 H         1 UNK         0.0794 
    119 H119       34.4366  -48.6313  -54.9440 H         1 UNK         0.0786 
    120 H120       34.8743  -50.1827  -55.6512 H         1 UNK         0.0786 
    121 H121       35.7961  -49.5433  -54.3033 H         1 UNK         0.0786 
    122 H122       32.9757  -48.9548  -52.4243 H         1 UNK         0.3032 
    123 H123       33.3275  -48.8191  -49.9733 H         1 UNK         0.1094 
    124 H124       35.0308  -48.2397  -48.2610 H         1 UNK         0.0794 
    125 H125       35.1756  -49.9275  -48.7210 H         1 UNK         0.0794 
    126 H126       36.3292  -48.7529  -49.3384 H         1 UNK         0.0794 
    127 H127       35.4307  -46.8598  -50.6049 H         1 UNK         0.3016 
@<TRIPOS>BOND
     1    1    2 1    
     2    1   67 1    
     3    1   68 1    
     4    1   69 1    
     5    2    3 2    
     6    2    4 am   BACKBONE|DICT|INTERRES
     7    4    5 1    
     8    4   70 1    
     9    5    6 1    
    10    5   65 1    
    11    5   71 1    
    12    6    7 1    
    13    6   72 1    
    14    6   73 1    
    15    7    8 1    
    16    8    9 1    
    17    8   74 1    
    18    8   75 1    
    19    9   10 ar   
    20    9   14 ar   
    21   10   11 ar   
    22   10   76 1    
    23   11   12 ar   
    24   11   48 1    
    25   12   13 ar   
    26   12   77 1    
    27   13   14 ar   
    28   13   15 1    
    29   14   78 1    
    30   15   16 1    
    31   15   79 1    
    32   15   80 1    
    33   16   17 1    
    34   17   18 1    
    35   17   81 1    
    36   17   82 1    
    37   18   19 1    
    38   18   22 1    
    39   18   83 1    
    40   19   20 am   BACKBONE|DICT|INTERRES
    41   19   21 2    
    42   20   84 1    
    43   20   85 1    
    44   22   23 am   BACKBONE|DICT|INTERRES
    45   22   86 1    
    46   23   24 2    
    47   23   25 1    
    48   25   26 1    
    49   25   27 1    
    50   25   87 1    
    51   26   88 1    
    52   26   89 1    
    53   26   90 1    
    54   27   28 am   BACKBONE|DICT|INTERRES
    55   27   91 1    
    56   28   29 2    
    57   28   30 1    
    58   30   31 1    
    59   30   32 1    
    60   30   92 1    
    61   31   93 1    
    62   31   94 1    
    63   31   95 1    
    64   32   33 am   BACKBONE|DICT|INTERRES
    65   32   96 1    
    66   33   34 2    
    67   33   35 1    
    68   35   36 1    
    69   35   37 1    
    70   35   97 1    
    71   36   98 1    
    72   36   99 1    
    73   36  100 1    
    74   37   38 am   BACKBONE|DICT|INTERRES
    75   37  101 1    
    76   38   39 2    
    77   38   40 1    
    78   40   41 1    
    79   40   42 1    
    80   40  102 1    
    81   41  103 1    
    82   41  104 1    
    83   41  105 1    
    84   42   43 am   BACKBONE|DICT|INTERRES
    85   42  106 1    
    86   43   44 2    
    87   43   45 1    
    88   45   46 1    
    89   45   49 1    
    90   45  107 1    
    91   46   47 1    
    92   46  108 1    
    93   46  109 1    
    94   47   48 1    
    95   48  110 1    
    96   48  111 1    
    97   49   50 am   BACKBONE|DICT|INTERRES
    98   49  112 1    
    99   50   51 2    
   100   50   52 1    
   101   52   53 1    
   102   52   54 1    
   103   52  113 1    
   104   53  114 1    
   105   53  115 1    
   106   53  116 1    
   107   54   55 am   BACKBONE|DICT|INTERRES
   108   54  117 1    
   109   55   56 2    
   110   55   57 1    
   111   57   58 1    
   112   57   59 1    
   113   57  118 1    
   114   58  119 1    
   115   58  120 1    
   116   58  121 1    
   117   59   60 am   BACKBONE|DICT|INTERRES
   118   59  122 1    
   119   60   61 2    
   120   60   62 1    
   121   62   63 1    
   122   62   64 1    
   123   62  123 1    
   124   63  124 1    
   125   63  125 1    
   126   63  126 1    
   127   64   65 am   BACKBONE|DICT|INTERRES
   128   64  127 1    
   129   65   66 2    
@<TRIPOS>SUBSTRUCTURE
     1 UNK         1 GROUP             0       ****    0 ROOT    
