@<TRIPOS>MOLECULE
3R134
127   129    1
SMALL
USER_CHARGES


@<TRIPOS>ATOM
      1 CA         30.1293  -45.6789  -53.8391 C.3       0 UNK        -0.1968 
      2 C          30.9032  -45.5755  -52.5382 C.2       0 UNK         0.4852 
      3 O          30.5311  -46.2321  -51.5661 O.2       0 UNK        -0.5359 
      4 N          31.9998  -44.8038  -52.5115 N.am      1 UNK        -0.4300 
      5 CA         32.8826  -44.6567  -51.3421 C.3       1 UNK         0.0863 
      6 C6         33.9434  -43.5447  -51.5241 C.3       11 UNK        -0.0953 
      7 S7         33.1954  -41.9017  -51.7886 S.3       11 UNK        -0.2369 
      8 C8         33.8049  -41.4657  -53.4470 C.3       11 UNK         0.0226 
      9 C9         33.1171  -42.2760  -54.5347 C.ar      11 UNK        -0.0699 
     10 C10        33.7417  -43.4014  -55.0805 C.ar      11 UNK        -0.0804 
     11 C11        33.1094  -44.1461  -56.0792 C.ar      11 UNK        -0.0871 
     12 C12        31.8559  -43.7458  -56.5497 C.ar      11 UNK        -0.1008 
     13 C13        31.2183  -42.6268  -56.0062 C.ar      11 UNK        -0.0735 
     14 C14        31.8552  -41.8938  -55.0006 C.ar      11 UNK        -0.0945 
     15 C15        29.8366  -42.2203  -56.4941 C.3       11 UNK         0.0169 
     16 S16        28.5512  -42.8238  -55.3600 S.3       11 UNK        -0.2669 
     17 C17        27.0436  -42.4511  -56.3166 C.3       11 UNK        -0.0850 
     18 CA         25.7386  -42.8170  -55.5476 C.3       10 UNK         0.0855 
     19 C          24.4537  -42.3544  -56.3015 C.2       10 UNK         0.5543 
     20 N          23.3516  -43.0920  -56.2464 N.am      10 UNK        -0.7343 
     21 O          24.4419  -41.2914  -56.9178 O.2       10 UNK        -0.5027 
     22 N          25.7171  -44.2150  -55.0717 N.am      10 UNK        -0.4495 
     23 C          25.7393  -45.3135  -55.8374 C.2       10 UNK         0.4903 
     24 O          25.7471  -45.2889  -57.0700 O.2       10 UNK        -0.4860 
     25 CA         25.8195  -46.6613  -55.0900 C.3       9 UNK         0.0227 
     26 CB         24.9134  -46.7239  -53.8391 C.3       9 UNK        -0.1964 
     27 N          25.5858  -47.8078  -55.9773 N.am      9 UNK        -0.4231 
     28 C          24.4465  -48.1615  -56.5941 C.2       9 UNK         0.5014 
     29 O          23.3629  -47.6035  -56.4124 O.2       9 UNK        -0.5270 
     30 CA         24.5215  -49.3289  -57.6017 C.3       8 UNK         0.0284 
     31 CB         24.0558  -48.8748  -58.9962 C.3       8 UNK        -0.1977 
     32 N          25.8675  -49.8959  -57.7249 N.am      8 UNK        -0.4342 
     33 C          26.4073  -50.8211  -56.9244 C.2       8 UNK         0.5039 
     34 O          25.7924  -51.3799  -56.0164 O.2       8 UNK        -0.5547 
     35 CA         27.8991  -51.1387  -57.1351 C.3       7 UNK         0.0281 
     36 CB         28.1157  -52.1022  -58.3177 C.3       7 UNK        -0.1963 
     37 N          28.7543  -49.9455  -57.2372 N.am      7 UNK        -0.4444 
     38 C          28.8000  -49.0115  -58.2018 C.2       7 UNK         0.5104 
     39 O          28.0862  -49.0245  -59.2049 O.2       7 UNK        -0.5100 
     40 CA         29.7753  -47.8448  -57.9940 C.3       6 UNK         0.0396 
     41 CB         29.1270  -46.7769  -57.1004 C.3       6 UNK        -0.1801 
     42 N          31.0210  -48.3062  -57.3818 N.am      6 UNK        -0.4747 
     43 C          32.1707  -48.5128  -58.0427 C.2       6 UNK         0.5012 
     44 O          32.3386  -48.2443  -59.2330 O.2       6 UNK        -0.5003 
     45 CA         33.3297  -49.1511  -57.2420 C.3       5 UNK         0.0782 
     46 C46        34.3216  -48.1039  -56.6729 C.3       11 UNK        -0.0868 
     47 S47        33.5766  -46.8312  -55.5874 S.3       11 UNK        -0.2515 
     48 C48        33.7868  -45.3744  -56.6604 C.3       11 UNK         0.0199 
     49 N          32.8501  -50.0704  -56.2070 N.am      5 UNK        -0.4607 
     50 C          32.2220  -51.2286  -56.4556 C.2       4 UNK         0.5031 
     51 O          32.0712  -51.6914  -57.5861 O.2       4 UNK        -0.5119 
     52 CA         31.6452  -51.9996  -55.2556 C.3       4 UNK         0.0263 
     53 CB         32.5058  -53.2354  -54.9482 C.3       4 UNK        -0.1967 
     54 N          31.4986  -51.2087  -54.0306 N.am      4 UNK        -0.4237 
     55 C          30.7145  -50.1376  -53.8594 C.2       3 UNK         0.4908 
     56 O          30.0619  -49.6124  -54.7638 O.2       3 UNK        -0.5102 
     57 CA         30.6803  -49.5361  -52.4456 C.3       3 UNK         0.0241 
     58 CB         30.3163  -50.5823  -51.3719 C.3       3 UNK        -0.1971 
     59 N          31.9068  -48.8081  -52.0974 N.am      3 UNK        -0.4139 
     60 C          33.1652  -49.2690  -51.9972 C.2       2 UNK         0.5016 
     61 O          33.4694  -50.4543  -52.1406 O.2       2 UNK        -0.5319 
     62 CA         34.2783  -48.2406  -51.7096 C.3       2 UNK         0.0286 
     63 CB         35.5117  -48.4827  -52.5982 C.3       2 UNK        -0.1963 
     64 N          33.8126  -46.8648  -51.9121 N.am      2 UNK        -0.4790 
     65 C          33.5584  -45.9849  -50.9326 C.2       1 UNK         0.5024 
     66 O          33.7995  -46.1971  -49.7437 O.2       1 UNK        -0.4888 
     67 H67        30.5349  -45.0207  -54.6017 H         1 UNK         0.0892 
     68 H68        30.1747  -46.7007  -54.2135 H         1 UNK         0.0892 
     69 H69        29.0843  -45.4146  -53.6810 H         1 UNK         0.0892 
     70 H70        32.2544  -44.2617  -53.3274 H         1 UNK         0.3107 
     71 H71        32.2451  -44.3679  -50.5034 H         1 UNK         0.0773 
     72 H72        34.6235  -43.7876  -52.3412 H         1 UNK         0.0680 
     73 H73        34.5670  -43.4683  -50.6310 H         1 UNK         0.0680 
     74 H74        34.8872  -41.5986  -53.4874 H         1 UNK         0.0650 
     75 H75        33.6239  -40.4034  -53.6174 H         1 UNK         0.0650 
     76 H76        34.7191  -43.7026  -54.7287 H         1 UNK         0.1397 
     77 H77        31.3701  -44.3135  -57.3308 H         1 UNK         0.1363 
     78 H78        31.3637  -41.0298  -54.5740 H         1 UNK         0.1355 
     79 H79        29.7721  -41.1340  -56.5740 H         1 UNK         0.0707 
     80 H80        29.6559  -42.6182  -57.4940 H         1 UNK         0.0707 
     81 H81        27.0881  -42.9799  -57.2701 H         1 UNK         0.1034 
     82 H82        27.0572  -41.3867  -56.5583 H         1 UNK         0.1034 
     83 H83        25.7367  -42.2173  -54.6367 H         1 UNK         0.0482 
     84 H84        22.5222  -42.7801  -56.7264 H         1 UNK         0.3460 
     85 H85        23.3507  -43.9688  -55.7504 H         1 UNK         0.3460 
     86 H86        25.7111  -44.3264  -54.0687 H         1 UNK         0.2989 
     87 H87        26.8511  -46.7582  -54.7496 H         1 UNK         0.0559 
     88 H88        25.2519  -46.0354  -53.0645 H         1 UNK         0.0848 
     89 H89        24.9196  -47.7204  -53.3971 H         1 UNK         0.0848 
     90 H90        23.8783  -46.4710  -54.0712 H         1 UNK         0.0848 
     91 H91        26.4076  -48.3382  -56.2227 H         1 UNK         0.3144 
     92 H92        23.8395  -50.1056  -57.2494 H         1 UNK         0.0727 
     93 H93        24.0687  -49.7007  -59.7077 H         1 UNK         0.0790 
     94 H94        24.6891  -48.0795  -59.3919 H         1 UNK         0.0790 
     95 H95        23.0343  -48.4932  -58.9648 H         1 UNK         0.0790 
     96 H96        26.4741  -49.4991  -58.4413 H         1 UNK         0.3215 
     97 H97        28.2337  -51.6548  -56.2336 H         1 UNK         0.0863 
     98 H98        29.1675  -52.3711  -58.4185 H         1 UNK         0.0808 
     99 H99        27.7875  -51.6734  -59.2647 H         1 UNK         0.0808 
    100 H100       27.5566  -53.0271  -58.1712 H         1 UNK         0.0808 
    101 H101       29.3306  -49.7881  -56.4119 H         1 UNK         0.3118 
    102 H102       29.9755  -47.3929  -58.9677 H         1 UNK         0.0546 
    103 H103       28.8357  -47.1821  -56.1319 H         1 UNK         0.0828 
    104 H104       28.2300  -46.3717  -57.5700 H         1 UNK         0.0828 
    105 H105       29.8013  -45.9413  -56.9232 H         1 UNK         0.0828 
    106 H106       30.9779  -48.5752  -56.4062 H         1 UNK         0.3005 
    107 H107       33.8878  -49.7578  -57.9595 H         1 UNK         0.1257 
    108 H108       35.1045  -48.6120  -56.1083 H         1 UNK         0.0775 
    109 H109       34.8444  -47.6172  -57.4982 H         1 UNK         0.0775 
    110 H110       34.8510  -45.1772  -56.7998 H         1 UNK         0.0840 
    111 H111       33.3821  -45.5919  -57.6504 H         1 UNK         0.0840 
    112 H112       32.9451  -49.7647  -55.2501 H         1 UNK         0.2987 
    113 H113       30.6492  -52.3394  -55.5464 H         1 UNK         0.0785 
    114 H114       32.0555  -53.8485  -54.1672 H         1 UNK         0.0798 
    115 H115       33.5080  -52.9559  -54.6204 H         1 UNK         0.0798 
    116 H116       32.6148  -53.8678  -55.8306 H         1 UNK         0.0798 
    117 H117       32.0960  -51.4619  -53.2496 H         1 UNK         0.3079 
    118 H118       29.8815  -48.7928  -52.4502 H         1 UNK         0.0794 
    119 H119       29.3912  -51.0997  -51.6299 H         1 UNK         0.0786 
    120 H120       30.1601  -50.1081  -50.4029 H         1 UNK         0.0786 
    121 H121       31.0888  -51.3412  -51.2463 H         1 UNK         0.0786 
    122 H122       31.7569  -47.8221  -51.9106 H         1 UNK         0.3032 
    123 H123       34.5781  -48.3933  -50.6704 H         1 UNK         0.1094 
    124 H124       35.2658  -48.4218  -53.6576 H         1 UNK         0.0794 
    125 H125       36.2961  -47.7539  -52.3938 H         1 UNK         0.0794 
    126 H126       35.9376  -49.4710  -52.4195 H         1 UNK         0.0794 
    127 H127       33.5943  -46.6012  -52.8642 H         1 UNK         0.3016 
@<TRIPOS>BOND
     1    1    2 1    
     2    1   67 1    
     3    1   68 1    
     4    1   69 1    
     5    2    3 2    
     6    2    4 am   BACKBONE|DICT|INTERRES
     7    4    5 1    
     8    4   70 1    
     9    5    6 1    
    10    5   65 1    
    11    5   71 1    
    12    6    7 1    
    13    6   72 1    
    14    6   73 1    
    15    7    8 1    
    16    8    9 1    
    17    8   74 1    
    18    8   75 1    
    19    9   10 ar   
    20    9   14 ar   
    21   10   11 ar   
    22   10   76 1    
    23   11   12 ar   
    24   11   48 1    
    25   12   13 ar   
    26   12   77 1    
    27   13   14 ar   
    28   13   15 1    
    29   14   78 1    
    30   15   16 1    
    31   15   79 1    
    32   15   80 1    
    33   16   17 1    
    34   17   18 1    
    35   17   81 1    
    36   17   82 1    
    37   18   19 1    
    38   18   22 1    
    39   18   83 1    
    40   19   20 am   BACKBONE|DICT|INTERRES
    41   19   21 2    
    42   20   84 1    
    43   20   85 1    
    44   22   23 am   BACKBONE|DICT|INTERRES
    45   22   86 1    
    46   23   24 2    
    47   23   25 1    
    48   25   26 1    
    49   25   27 1    
    50   25   87 1    
    51   26   88 1    
    52   26   89 1    
    53   26   90 1    
    54   27   28 am   BACKBONE|DICT|INTERRES
    55   27   91 1    
    56   28   29 2    
    57   28   30 1    
    58   30   31 1    
    59   30   32 1    
    60   30   92 1    
    61   31   93 1    
    62   31   94 1    
    63   31   95 1    
    64   32   33 am   BACKBONE|DICT|INTERRES
    65   32   96 1    
    66   33   34 2    
    67   33   35 1    
    68   35   36 1    
    69   35   37 1    
    70   35   97 1    
    71   36   98 1    
    72   36   99 1    
    73   36  100 1    
    74   37   38 am   BACKBONE|DICT|INTERRES
    75   37  101 1    
    76   38   39 2    
    77   38   40 1    
    78   40   41 1    
    79   40   42 1    
    80   40  102 1    
    81   41  103 1    
    82   41  104 1    
    83   41  105 1    
    84   42   43 am   BACKBONE|DICT|INTERRES
    85   42  106 1    
    86   43   44 2    
    87   43   45 1    
    88   45   46 1    
    89   45   49 1    
    90   45  107 1    
    91   46   47 1    
    92   46  108 1    
    93   46  109 1    
    94   47   48 1    
    95   48  110 1    
    96   48  111 1    
    97   49   50 am   BACKBONE|DICT|INTERRES
    98   49  112 1    
    99   50   51 2    
   100   50   52 1    
   101   52   53 1    
   102   52   54 1    
   103   52  113 1    
   104   53  114 1    
   105   53  115 1    
   106   53  116 1    
   107   54   55 am   BACKBONE|DICT|INTERRES
   108   54  117 1    
   109   55   56 2    
   110   55   57 1    
   111   57   58 1    
   112   57   59 1    
   113   57  118 1    
   114   58  119 1    
   115   58  120 1    
   116   58  121 1    
   117   59   60 am   BACKBONE|DICT|INTERRES
   118   59  122 1    
   119   60   61 2    
   120   60   62 1    
   121   62   63 1    
   122   62   64 1    
   123   62  123 1    
   124   63  124 1    
   125   63  125 1    
   126   63  126 1    
   127   64   65 am   BACKBONE|DICT|INTERRES
   128   64  127 1    
   129   65   66 2    
@<TRIPOS>SUBSTRUCTURE
     1 UNK         1 GROUP             0       ****    0 ROOT    
