@<TRIPOS>MOLECULE
3R134
127   129    1
SMALL
USER_CHARGES


@<TRIPOS>ATOM
      1 CA         32.4567  -49.6818  -57.9584 C.3       0 UNK        -0.1968 
      2 C          32.7824  -49.1516  -56.5716 C.2       0 UNK         0.4852 
      3 O          32.6719  -49.8957  -55.5975 O.2       0 UNK        -0.5359 
      4 N          33.2083  -47.8824  -56.4844 N.am      1 UNK        -0.4300 
      5 CA         33.4901  -47.1186  -55.2568 C.3       1 UNK         0.0863 
      6 C6         34.0793  -45.7171  -55.5678 C.3       11 UNK        -0.0953 
      7 S7         33.1915  -44.8033  -56.8741 S.3       11 UNK        -0.2369 
      8 C8         33.0628  -43.1375  -56.1565 C.3       11 UNK         0.0226 
      9 C9         31.7925  -42.9678  -55.3378 C.ar      11 UNK        -0.0699 
     10 C10        31.8189  -43.0773  -53.9439 C.ar      11 UNK        -0.0804 
     11 C11        30.6561  -42.8655  -53.1954 C.ar      11 UNK        -0.0871 
     12 C12        29.4627  -42.5496  -53.8529 C.ar      11 UNK        -0.1008 
     13 C13        29.4209  -42.4512  -55.2471 C.ar      11 UNK        -0.0735 
     14 C14        30.5912  -42.6576  -55.9821 C.ar      11 UNK        -0.0945 
     15 C15        28.1267  -42.0777  -55.9578 C.3       11 UNK         0.0169 
     16 S16        26.7903  -43.2669  -55.6273 S.3       11 UNK        -0.2669 
     17 C17        25.4402  -42.5434  -56.6216 C.3       11 UNK        -0.0850 
     18 CA         24.7122  -43.5914  -57.5125 C.3       10 UNK         0.0855 
     19 C          23.4653  -42.9963  -58.2363 C.2       10 UNK         0.5543 
     20 N          23.1158  -43.4532  -59.4329 N.am      10 UNK        -0.7343 
     21 O          22.7827  -42.1292  -57.6956 O.2       10 UNK        -0.5027 
     22 N          25.6228  -44.3574  -58.3833 N.am      10 UNK        -0.4495 
     23 C          26.3956  -43.8801  -59.3653 C.2       10 UNK         0.4903 
     24 O          26.4661  -42.6879  -59.6680 O.2       10 UNK        -0.4860 
     25 CA         27.2301  -44.9260  -60.1353 C.3       9 UNK         0.0227 
     26 CB         27.9642  -44.3191  -61.3461 C.3       9 UNK        -0.1964 
     27 N          28.2093  -45.6060  -59.2812 N.am      9 UNK        -0.4231 
     28 C          27.9340  -46.5330  -58.3537 C.2       9 UNK         0.5014 
     29 O          26.7923  -46.9390  -58.1149 O.2       9 UNK        -0.5270 
     30 CA         29.1407  -47.0661  -57.5606 C.3       8 UNK         0.0284 
     31 CB         29.7762  -45.9523  -56.7138 C.3       8 UNK        -0.1977 
     32 N          28.7652  -48.1660  -56.6747 N.am      8 UNK        -0.4342 
     33 C          28.5824  -49.4367  -57.0573 C.2       8 UNK         0.5039 
     34 O          28.7623  -49.8320  -58.2106 O.2       8 UNK        -0.5547 
     35 CA         28.1389  -50.4494  -55.9849 C.3       7 UNK         0.0281 
     36 CB         29.2640  -51.4588  -55.6931 C.3       7 UNK        -0.1963 
     37 N          27.7459  -49.7989  -54.7318 N.am      7 UNK        -0.4444 
     38 C          26.4893  -49.4540  -54.4129 C.2       7 UNK         0.5104 
     39 O          25.5138  -49.7026  -55.1217 O.2       7 UNK        -0.5100 
     40 CA         26.2666  -48.7121  -53.0781 C.3       6 UNK         0.0396 
     41 CB         25.7629  -49.6895  -52.0039 C.3       6 UNK        -0.1801 
     42 N          27.4565  -48.0216  -52.5725 N.am      6 UNK        -0.4747 
     43 C          28.0409  -46.9647  -53.1580 C.2       6 UNK         0.5012 
     44 O          27.5884  -46.4162  -54.1590 O.2       6 UNK        -0.5003 
     45 CA         29.3958  -46.5005  -52.5770 C.3       5 UNK         0.0782 
     46 C46        29.2004  -45.3447  -51.5690 C.3       11 UNK        -0.0868 
     47 S47        30.8013  -44.6391  -51.0484 S.3       11 UNK        -0.2515 
     48 C48        30.6970  -42.9322  -51.6745 C.3       11 UNK         0.0199 
     49 N          30.1503  -47.6195  -51.9900 N.am      5 UNK        -0.4607 
     50 C          30.5796  -48.6790  -52.6838 C.2       4 UNK         0.5031 
     51 O          30.4346  -48.7920  -53.9002 O.2       4 UNK        -0.5119 
     52 CA         31.1371  -49.8513  -51.8760 C.3       4 UNK         0.0263 
     53 CB         29.9699  -50.7521  -51.4159 C.3       4 UNK        -0.1967 
     54 N          32.0774  -50.6019  -52.7055 N.am      4 UNK        -0.4237 
     55 C          32.8726  -51.5903  -52.2733 C.2       3 UNK         0.4908 
     56 O          32.8895  -52.0082  -51.1147 O.2       3 UNK        -0.5102 
     57 CA         33.8445  -52.1914  -53.2960 C.3       3 UNK         0.0241 
     58 CB         33.1024  -53.0018  -54.3736 C.3       3 UNK        -0.1971 
     59 N          34.6353  -51.1269  -53.9106 N.am      3 UNK        -0.4139 
     60 C          35.7543  -50.6187  -53.3735 C.2       2 UNK         0.5016 
     61 O          36.3062  -51.0833  -52.3749 O.2       2 UNK        -0.5319 
     62 CA         36.3736  -49.3832  -54.0518 C.3       2 UNK         0.0286 
     63 CB         37.5193  -49.8015  -54.9877 C.3       2 UNK        -0.1963 
     64 N          35.4094  -48.5801  -54.8062 N.am      2 UNK        -0.4790 
     65 C          34.4274  -47.8423  -54.2660 C.2       1 UNK         0.5024 
     66 O          34.2460  -47.7231  -53.0541 O.2       1 UNK        -0.4888 
     67 H67        33.2166  -50.3956  -58.2745 H         1 UNK         0.0892 
     68 H68        31.4952  -50.1935  -57.9452 H         1 UNK         0.0892 
     69 H69        32.4036  -48.8835  -58.6982 H         1 UNK         0.0892 
     70 H70        33.2838  -47.3362  -57.3310 H         1 UNK         0.3107 
     71 H71        32.5326  -46.9840  -54.7499 H         1 UNK         0.0773 
     72 H72        35.1184  -45.7986  -55.8939 H         1 UNK         0.0680 
     73 H73        34.0959  -45.1173  -54.6561 H         1 UNK         0.0680 
     74 H74        33.0644  -42.4116  -56.9710 H         1 UNK         0.0650 
     75 H75        33.9472  -42.9148  -55.5578 H         1 UNK         0.0650 
     76 H76        32.7459  -43.3101  -53.4381 H         1 UNK         0.1397 
     77 H77        28.5611  -42.3737  -53.2821 H         1 UNK         0.1363 
     78 H78        30.5733  -42.5682  -57.0597 H         1 UNK         0.1355 
     79 H79        27.8153  -41.0850  -55.6299 H         1 UNK         0.0707 
     80 H80        28.2830  -42.0175  -57.0363 H         1 UNK         0.0707 
     81 H81        24.7376  -42.0842  -55.9238 H         1 UNK         0.1034 
     82 H82        25.8221  -41.7275  -57.2372 H         1 UNK         0.1034 
     83 H83        24.2930  -44.3362  -56.8352 H         1 UNK         0.0482 
     84 H84        23.6583  -44.1743  -59.8804 H         1 UNK         0.3460 
     85 H85        22.3028  -43.0721  -59.8908 H         1 UNK         0.3460 
     86 H86        25.6938  -45.3520  -58.1857 H         1 UNK         0.2989 
     87 H87        26.5323  -45.6742  -60.5172 H         1 UNK         0.0559 
     88 H88        28.6948  -43.5680  -61.0427 H         1 UNK         0.0848 
     89 H89        27.2620  -43.8338  -62.0254 H         1 UNK         0.0848 
     90 H90        28.4871  -45.0847  -61.9196 H         1 UNK         0.0848 
     91 H91        29.1686  -45.3097  -59.3879 H         1 UNK         0.3144 
     92 H92        29.8856  -47.4316  -58.2707 H         1 UNK         0.0727 
     93 H93        30.2331  -45.1926  -57.3471 H         1 UNK         0.0790 
     94 H94        30.5588  -46.3405  -56.0626 H         1 UNK         0.0790 
     95 H95        29.0413  -45.4462  -56.0875 H         1 UNK         0.0790 
     96 H96        28.5338  -47.9124  -55.7243 H         1 UNK         0.3215 
     97 H97        27.2911  -51.0027  -56.3945 H         1 UNK         0.0863 
     98 H98        30.1648  -50.9682  -55.3250 H         1 UNK         0.0808 
     99 H99        29.5418  -52.0044  -56.5957 H         1 UNK         0.0808 
    100 H100       28.9563  -52.1954  -54.9510 H         1 UNK         0.0808 
    101 H101       28.5084  -49.5172  -54.1260 H         1 UNK         0.3118 
    102 H102       25.4913  -47.9619  -53.2475 H         1 UNK         0.0546 
    103 H103       26.5020  -50.4594  -51.7785 H         1 UNK         0.0828 
    104 H104       24.8554  -50.1974  -52.3336 H         1 UNK         0.0828 
    105 H105       25.5211  -49.1715  -51.0758 H         1 UNK         0.0828 
    106 H106       27.8909  -48.4096  -51.7482 H         1 UNK         0.3005 
    107 H107       29.9767  -46.1180  -53.4206 H         1 UNK         0.1257 
    108 H108       28.6711  -45.6926  -50.6800 H         1 UNK         0.0775 
    109 H109       28.5789  -44.5578  -51.9995 H         1 UNK         0.0775 
    110 H110       29.8236  -42.4430  -51.2401 H         1 UNK         0.0840 
    111 H111       31.5630  -42.3744  -51.3149 H         1 UNK         0.0840 
    112 H112       30.3062  -47.5786  -50.9930 H         1 UNK         0.2987 
    113 H113       31.6731  -49.4603  -51.0087 H         1 UNK         0.0785 
    114 H114       29.2394  -50.1883  -50.8351 H         1 UNK         0.0798 
    115 H115       30.3117  -51.5673  -50.7789 H         1 UNK         0.0798 
    116 H116       29.4449  -51.1926  -52.2648 H         1 UNK         0.0798 
    117 H117       32.1288  -50.2968  -53.6769 H         1 UNK         0.3079 
    118 H118       34.5110  -52.8778  -52.7689 H         1 UNK         0.0794 
    119 H119       32.5444  -53.8233  -53.9228 H         1 UNK         0.0786 
    120 H120       33.7997  -53.4378  -55.0890 H         1 UNK         0.0786 
    121 H121       32.3887  -52.3958  -54.9317 H         1 UNK         0.0786 
    122 H122       34.1974  -50.6394  -54.6877 H         1 UNK         0.3032 
    123 H123       36.7885  -48.7555  -53.2596 H         1 UNK         0.1094 
    124 H124       38.2721  -50.3786  -54.4486 H         1 UNK         0.0794 
    125 H125       37.1626  -50.4210  -55.8115 H         1 UNK         0.0794 
    126 H126       38.0233  -48.9329  -55.4122 H         1 UNK         0.0794 
    127 H127       35.4729  -48.6186  -55.8135 H         1 UNK         0.3016 
@<TRIPOS>BOND
     1    1    2 1    
     2    1   67 1    
     3    1   68 1    
     4    1   69 1    
     5    2    3 2    
     6    2    4 am   BACKBONE|DICT|INTERRES
     7    4    5 1    
     8    4   70 1    
     9    5    6 1    
    10    5   65 1    
    11    5   71 1    
    12    6    7 1    
    13    6   72 1    
    14    6   73 1    
    15    7    8 1    
    16    8    9 1    
    17    8   74 1    
    18    8   75 1    
    19    9   10 ar   
    20    9   14 ar   
    21   10   11 ar   
    22   10   76 1    
    23   11   12 ar   
    24   11   48 1    
    25   12   13 ar   
    26   12   77 1    
    27   13   14 ar   
    28   13   15 1    
    29   14   78 1    
    30   15   16 1    
    31   15   79 1    
    32   15   80 1    
    33   16   17 1    
    34   17   18 1    
    35   17   81 1    
    36   17   82 1    
    37   18   19 1    
    38   18   22 1    
    39   18   83 1    
    40   19   20 am   BACKBONE|DICT|INTERRES
    41   19   21 2    
    42   20   84 1    
    43   20   85 1    
    44   22   23 am   BACKBONE|DICT|INTERRES
    45   22   86 1    
    46   23   24 2    
    47   23   25 1    
    48   25   26 1    
    49   25   27 1    
    50   25   87 1    
    51   26   88 1    
    52   26   89 1    
    53   26   90 1    
    54   27   28 am   BACKBONE|DICT|INTERRES
    55   27   91 1    
    56   28   29 2    
    57   28   30 1    
    58   30   31 1    
    59   30   32 1    
    60   30   92 1    
    61   31   93 1    
    62   31   94 1    
    63   31   95 1    
    64   32   33 am   BACKBONE|DICT|INTERRES
    65   32   96 1    
    66   33   34 2    
    67   33   35 1    
    68   35   36 1    
    69   35   37 1    
    70   35   97 1    
    71   36   98 1    
    72   36   99 1    
    73   36  100 1    
    74   37   38 am   BACKBONE|DICT|INTERRES
    75   37  101 1    
    76   38   39 2    
    77   38   40 1    
    78   40   41 1    
    79   40   42 1    
    80   40  102 1    
    81   41  103 1    
    82   41  104 1    
    83   41  105 1    
    84   42   43 am   BACKBONE|DICT|INTERRES
    85   42  106 1    
    86   43   44 2    
    87   43   45 1    
    88   45   46 1    
    89   45   49 1    
    90   45  107 1    
    91   46   47 1    
    92   46  108 1    
    93   46  109 1    
    94   47   48 1    
    95   48  110 1    
    96   48  111 1    
    97   49   50 am   BACKBONE|DICT|INTERRES
    98   49  112 1    
    99   50   51 2    
   100   50   52 1    
   101   52   53 1    
   102   52   54 1    
   103   52  113 1    
   104   53  114 1    
   105   53  115 1    
   106   53  116 1    
   107   54   55 am   BACKBONE|DICT|INTERRES
   108   54  117 1    
   109   55   56 2    
   110   55   57 1    
   111   57   58 1    
   112   57   59 1    
   113   57  118 1    
   114   58  119 1    
   115   58  120 1    
   116   58  121 1    
   117   59   60 am   BACKBONE|DICT|INTERRES
   118   59  122 1    
   119   60   61 2    
   120   60   62 1    
   121   62   63 1    
   122   62   64 1    
   123   62  123 1    
   124   63  124 1    
   125   63  125 1    
   126   63  126 1    
   127   64   65 am   BACKBONE|DICT|INTERRES
   128   64  127 1    
   129   65   66 2    
@<TRIPOS>SUBSTRUCTURE
     1 UNK         1 GROUP             0       ****    0 ROOT    
