@<TRIPOS>MOLECULE
3R134
127   129    1
SMALL
USER_CHARGES


@<TRIPOS>ATOM
      1 CA         32.2939  -43.1438  -51.1325 C.3       0 UNK        -0.1968 
      2 C          33.5790  -43.5168  -51.8531 C.2       0 UNK         0.4852 
      3 O          34.6587  -43.3675  -51.2787 O.2       0 UNK        -0.5359 
      4 N          33.4757  -43.9815  -53.1074 N.am      1 UNK        -0.4300 
      5 CA         34.6206  -44.3567  -53.9453 C.3       1 UNK         0.0863 
      6 C6         34.2366  -44.5105  -55.4436 C.3       11 UNK        -0.0953 
      7 S7         33.1459  -45.9299  -55.8293 S.3       11 UNK        -0.2369 
      8 C8         31.6569  -45.1349  -56.5040 C.3       11 UNK         0.0226 
      9 C9         30.8909  -44.3372  -55.4591 C.ar      11 UNK        -0.0699 
     10 C10        30.4117  -44.9614  -54.3045 C.ar      11 UNK        -0.0804 
     11 C11        29.6608  -44.2473  -53.3656 C.ar      11 UNK        -0.0871 
     12 C12        29.3844  -42.8963  -53.5996 C.ar      11 UNK        -0.1008 
     13 C13        29.8841  -42.2526  -54.7350 C.ar      11 UNK        -0.0735 
     14 C14        30.6426  -42.9777  -55.6583 C.ar      11 UNK        -0.0945 
     15 C15        29.6272  -40.7670  -54.9429 C.3       11 UNK         0.0169 
     16 S16        28.0507  -40.4546  -55.7992 S.3       11 UNK        -0.2669 
     17 C17        28.4531  -40.9534  -57.5103 C.3       11 UNK        -0.0850 
     18 CA         27.6017  -42.1422  -58.0304 C.3       10 UNK         0.0855 
     19 C          27.9973  -42.5039  -59.4946 C.2       10 UNK         0.5543 
     20 N          28.4476  -43.7179  -59.7935 N.am      10 UNK        -0.7343 
     21 O          27.8901  -41.6598  -60.3808 O.2       10 UNK        -0.5027 
     22 N          27.5912  -43.2870  -57.1030 N.am      10 UNK        -0.4495 
     23 C          26.6535  -44.2394  -57.1163 C.2       10 UNK         0.4903 
     24 O          25.6478  -44.2077  -57.8299 O.2       10 UNK        -0.4860 
     25 CA         26.8792  -45.4519  -56.1982 C.3       9 UNK         0.0227 
     26 CB         25.8348  -45.4562  -55.0703 C.3       9 UNK        -0.1964 
     27 N          26.7821  -46.6979  -56.9672 N.am      9 UNK        -0.4231 
     28 C          27.5824  -47.0108  -57.9958 C.2       9 UNK         0.5014 
     29 O          28.6080  -46.3847  -58.2752 O.2       9 UNK        -0.5270 
     30 CA         27.1403  -48.1914  -58.8707 C.3       8 UNK         0.0284 
     31 CB         27.8207  -48.1837  -60.2559 C.3       8 UNK        -0.1977 
     32 N          27.4079  -49.4575  -58.1941 N.am      8 UNK        -0.4342 
     33 C          26.7512  -50.6000  -58.4349 C.2       8 UNK         0.5039 
     34 O          25.7812  -50.6856  -59.1897 O.2       8 UNK        -0.5547 
     35 CA         27.2606  -51.8666  -57.7328 C.3       7 UNK         0.0281 
     36 CB         28.5639  -52.3631  -58.3830 C.3       7 UNK        -0.1963 
     37 N          27.4839  -51.6326  -56.3076 N.am      7 UNK        -0.4444 
     38 C          26.6249  -51.9647  -55.3343 C.2       7 UNK         0.5104 
     39 O          25.5515  -52.5350  -55.5329 O.2       7 UNK        -0.5100 
     40 CA         27.0258  -51.6197  -53.8862 C.3       6 UNK         0.0396 
     41 CB         27.5722  -52.8661  -53.1723 C.3       6 UNK        -0.1801 
     42 N          28.0139  -50.5425  -53.7881 N.am      6 UNK        -0.4747 
     43 C          27.7658  -49.2569  -54.0863 C.2       6 UNK         0.5012 
     44 O          26.6617  -48.8467  -54.4419 O.2       6 UNK        -0.5003 
     45 CA         28.9634  -48.2797  -54.0219 C.3       5 UNK         0.0782 
     46 C46        29.0965  -47.6830  -52.5967 C.3       11 UNK        -0.0868 
     47 S47        28.0033  -46.2482  -52.3293 S.3       11 UNK        -0.2515 
     48 C48        29.1986  -44.9016  -52.0682 C.3       11 UNK         0.0199 
     49 N          30.2293  -48.8904  -54.4511 N.am      5 UNK        -0.4607 
     50 C          30.4310  -49.5669  -55.5923 C.2       4 UNK         0.5031 
     51 O          29.6097  -49.6032  -56.5070 O.2       4 UNK        -0.5119 
     52 CA         31.7095  -50.4201  -55.7179 C.3       4 UNK         0.0263 
     53 CB         32.6673  -49.8055  -56.7500 C.3       4 UNK        -0.1967 
     54 N          32.4319  -50.6344  -54.4596 N.am      4 UNK        -0.4237 
     55 C          31.9446  -51.1816  -53.3342 C.2       3 UNK         0.4908 
     56 O          30.8255  -51.6905  -53.2541 O.2       3 UNK        -0.5102 
     57 CA         32.8191  -51.0802  -52.0657 C.3       3 UNK         0.0241 
     58 CB         33.4148  -52.4534  -51.7160 C.3       3 UNK        -0.1971 
     59 N          33.9043  -50.0891  -52.1443 N.am      3 UNK        -0.4139 
     60 C          33.7519  -48.7745  -52.3683 C.2       2 UNK         0.5016 
     61 O          32.6485  -48.2276  -52.4799 O.2       2 UNK        -0.5319 
     62 CA         35.0382  -47.9567  -52.5850 C.3       2 UNK         0.0286 
     63 CB         35.9274  -48.6205  -53.6667 C.3       2 UNK        -0.1963 
     64 N          34.6262  -46.6155  -52.9960 N.am      2 UNK        -0.4790 
     65 C          35.3823  -45.5882  -53.4038 C.2       1 UNK         0.5024 
     66 O          36.6137  -45.5761  -53.3712 O.2       1 UNK        -0.4888 
     67 H67        32.4792  -42.3440  -50.4158 H         1 UNK         0.0892 
     68 H68        31.5376  -42.7897  -51.8297 H         1 UNK         0.0892 
     69 H69        31.9028  -44.0022  -50.5882 H         1 UNK         0.0892 
     70 H70        32.5657  -44.0795  -53.5375 H         1 UNK         0.3107 
     71 H71        35.3225  -43.5211  -53.8927 H         1 UNK         0.0773 
     72 H72        35.1418  -44.6222  -56.0431 H         1 UNK         0.0680 
     73 H73        33.7701  -43.5900  -55.7975 H         1 UNK         0.0680 
     74 H74        30.9995  -45.9108  -56.8993 H         1 UNK         0.0650 
     75 H75        31.9392  -44.5101  -57.3528 H         1 UNK         0.0650 
     76 H76        30.6397  -46.0036  -54.1423 H         1 UNK         0.1397 
     77 H77        28.8061  -42.3312  -52.8810 H         1 UNK         0.1363 
     78 H78        31.0389  -42.4865  -56.5358 H         1 UNK         0.1355 
     79 H79        29.6031  -40.2624  -53.9758 H         1 UNK         0.0707 
     80 H80        30.4469  -40.3086  -55.4985 H         1 UNK         0.0707 
     81 H81        29.5162  -41.1761  -57.5970 H         1 UNK         0.1034 
     82 H82        28.2919  -40.0798  -58.1451 H         1 UNK         0.1034 
     83 H83        26.5740  -41.7784  -58.0907 H         1 UNK         0.0482 
     84 H84        28.5250  -44.4413  -59.0884 H         1 UNK         0.3460 
     85 H85        28.6963  -43.9247  -60.7473 H         1 UNK         0.3460 
     86 H86        28.3821  -43.3677  -56.4789 H         1 UNK         0.2989 
     87 H87        27.8759  -45.3977  -55.7564 H         1 UNK         0.0559 
     88 H88        24.8157  -45.4536  -55.4593 H         1 UNK         0.0848 
     89 H89        25.9462  -44.5743  -54.4380 H         1 UNK         0.0848 
     90 H90        25.9396  -46.3280  -54.4271 H         1 UNK         0.0848 
     91 H91        25.9717  -47.2746  -56.7913 H         1 UNK         0.3144 
     92 H92        26.0639  -48.0851  -59.0234 H         1 UNK         0.0727 
     93 H93        27.4162  -48.9612  -60.9040 H         1 UNK         0.0790 
     94 H94        28.8970  -48.3415  -60.1749 H         1 UNK         0.0790 
     95 H95        27.6663  -47.2296  -60.7616 H         1 UNK         0.0790 
     96 H96        28.2072  -49.4627  -57.5577 H         1 UNK         0.3215 
     97 H97        26.5079  -52.6466  -57.8681 H         1 UNK         0.0863 
     98 H98        29.3713  -51.6355  -58.2948 H         1 UNK         0.0808 
     99 H99        28.4173  -52.5579  -59.4463 H         1 UNK         0.0808 
    100 H100       28.9023  -53.2939  -57.9277 H         1 UNK         0.0808 
    101 H101       28.3131  -51.1053  -56.0619 H         1 UNK         0.3118 
    102 H102       26.1225  -51.2976  -53.3640 H         1 UNK         0.0546 
    103 H103       27.8005  -52.6579  -52.1270 H         1 UNK         0.0828 
    104 H104       28.4825  -53.2354  -53.6465 H         1 UNK         0.0828 
    105 H105       26.8433  -53.6776  -53.1889 H         1 UNK         0.0828 
    106 H106       28.9571  -50.8151  -53.5269 H         1 UNK         0.3005 
    107 H107       28.7567  -47.4787  -54.7344 H         1 UNK         0.1257 
    108 H108       30.1240  -47.3741  -52.4061 H         1 UNK         0.0775 
    109 H109       28.8900  -48.4295  -51.8267 H         1 UNK         0.0775 
    110 H110       28.7266  -44.1605  -51.4213 H         1 UNK         0.0840 
    111 H111       30.0608  -45.2698  -51.5120 H         1 UNK         0.0840 
    112 H112       30.9788  -48.8807  -53.7691 H         1 UNK         0.2987 
    113 H113       31.3967  -51.4005  -56.0824 H         1 UNK         0.0785 
    114 H114       33.5134  -50.4635  -56.9485 H         1 UNK         0.0798 
    115 H115       32.1623  -49.6350  -57.7021 H         1 UNK         0.0798 
    116 H116       33.0597  -48.8459  -56.4136 H         1 UNK         0.0798 
    117 H117       33.3615  -50.2459  -54.4149 H         1 UNK         0.3079 
    118 H118       32.1587  -50.7751  -51.2513 H         1 UNK         0.0794 
    119 H119       33.9508  -52.4247  -50.7671 H         1 UNK         0.0786 
    120 H120       34.1068  -52.8012  -52.4841 H         1 UNK         0.0786 
    121 H121       32.6311  -53.2064  -51.6187 H         1 UNK         0.0786 
    122 H122       34.8426  -50.4538  -52.0619 H         1 UNK         0.3032 
    123 H123       35.5760  -47.8903  -51.6375 H         1 UNK         0.1094 
    124 H124       36.8633  -48.0826  -53.8118 H         1 UNK         0.0794 
    125 H125       36.2103  -49.6381  -53.3966 H         1 UNK         0.0794 
    126 H126       35.4199  -48.6645  -54.6314 H         1 UNK         0.0794 
    127 H127       33.6172  -46.5227  -53.0438 H         1 UNK         0.3016 
@<TRIPOS>BOND
     1    1    2 1    
     2    1   67 1    
     3    1   68 1    
     4    1   69 1    
     5    2    3 2    
     6    2    4 am   BACKBONE|DICT|INTERRES
     7    4    5 1    
     8    4   70 1    
     9    5    6 1    
    10    5   65 1    
    11    5   71 1    
    12    6    7 1    
    13    6   72 1    
    14    6   73 1    
    15    7    8 1    
    16    8    9 1    
    17    8   74 1    
    18    8   75 1    
    19    9   10 ar   
    20    9   14 ar   
    21   10   11 ar   
    22   10   76 1    
    23   11   12 ar   
    24   11   48 1    
    25   12   13 ar   
    26   12   77 1    
    27   13   14 ar   
    28   13   15 1    
    29   14   78 1    
    30   15   16 1    
    31   15   79 1    
    32   15   80 1    
    33   16   17 1    
    34   17   18 1    
    35   17   81 1    
    36   17   82 1    
    37   18   19 1    
    38   18   22 1    
    39   18   83 1    
    40   19   20 am   BACKBONE|DICT|INTERRES
    41   19   21 2    
    42   20   84 1    
    43   20   85 1    
    44   22   23 am   BACKBONE|DICT|INTERRES
    45   22   86 1    
    46   23   24 2    
    47   23   25 1    
    48   25   26 1    
    49   25   27 1    
    50   25   87 1    
    51   26   88 1    
    52   26   89 1    
    53   26   90 1    
    54   27   28 am   BACKBONE|DICT|INTERRES
    55   27   91 1    
    56   28   29 2    
    57   28   30 1    
    58   30   31 1    
    59   30   32 1    
    60   30   92 1    
    61   31   93 1    
    62   31   94 1    
    63   31   95 1    
    64   32   33 am   BACKBONE|DICT|INTERRES
    65   32   96 1    
    66   33   34 2    
    67   33   35 1    
    68   35   36 1    
    69   35   37 1    
    70   35   97 1    
    71   36   98 1    
    72   36   99 1    
    73   36  100 1    
    74   37   38 am   BACKBONE|DICT|INTERRES
    75   37  101 1    
    76   38   39 2    
    77   38   40 1    
    78   40   41 1    
    79   40   42 1    
    80   40  102 1    
    81   41  103 1    
    82   41  104 1    
    83   41  105 1    
    84   42   43 am   BACKBONE|DICT|INTERRES
    85   42  106 1    
    86   43   44 2    
    87   43   45 1    
    88   45   46 1    
    89   45   49 1    
    90   45  107 1    
    91   46   47 1    
    92   46  108 1    
    93   46  109 1    
    94   47   48 1    
    95   48  110 1    
    96   48  111 1    
    97   49   50 am   BACKBONE|DICT|INTERRES
    98   49  112 1    
    99   50   51 2    
   100   50   52 1    
   101   52   53 1    
   102   52   54 1    
   103   52  113 1    
   104   53  114 1    
   105   53  115 1    
   106   53  116 1    
   107   54   55 am   BACKBONE|DICT|INTERRES
   108   54  117 1    
   109   55   56 2    
   110   55   57 1    
   111   57   58 1    
   112   57   59 1    
   113   57  118 1    
   114   58  119 1    
   115   58  120 1    
   116   58  121 1    
   117   59   60 am   BACKBONE|DICT|INTERRES
   118   59  122 1    
   119   60   61 2    
   120   60   62 1    
   121   62   63 1    
   122   62   64 1    
   123   62  123 1    
   124   63  124 1    
   125   63  125 1    
   126   63  126 1    
   127   64   65 am   BACKBONE|DICT|INTERRES
   128   64  127 1    
   129   65   66 2    
@<TRIPOS>SUBSTRUCTURE
     1 UNK         1 GROUP             0       ****    0 ROOT    
