@<TRIPOS>MOLECULE
3R134
127   129    1
SMALL
USER_CHARGES


@<TRIPOS>ATOM
      1 CA         32.7590  -41.8984  -52.2737 C.3       0 UNK        -0.1968 
      2 C          34.0474  -42.6291  -52.6157 C.2       0 UNK         0.4852 
      3 O          35.0654  -42.4134  -51.9566 O.2       0 UNK        -0.5359 
      4 N          34.0131  -43.4876  -53.6453 N.am      1 UNK        -0.4300 
      5 CA         35.1679  -44.2617  -54.1207 C.3       1 UNK         0.0863 
      6 C6         35.0158  -44.6568  -55.6175 C.3       11 UNK        -0.0953 
      7 S7         34.1441  -46.2226  -55.9682 S.3       11 UNK        -0.2369 
      8 C8         32.4642  -45.6849  -56.4259 C.3       11 UNK         0.0226 
      9 C9         31.6577  -45.1471  -55.2491 C.ar      11 UNK        -0.0699 
     10 C10        31.5647  -45.8731  -54.0560 C.ar      11 UNK        -0.0804 
     11 C11        30.8295  -45.3795  -52.9712 C.ar      11 UNK        -0.0871 
     12 C12        30.1567  -44.1627  -53.1071 C.ar      11 UNK        -0.1008 
     13 C13        30.2274  -43.4333  -54.2967 C.ar      11 UNK        -0.0735 
     14 C14        30.9851  -43.9265  -55.3626 C.ar      11 UNK        -0.0945 
     15 C15        29.5095  -42.0961  -54.4031 C.3       11 UNK         0.0169 
     16 S16        27.7713  -42.3028  -54.8951 S.3       11 UNK        -0.2669 
     17 C17        27.9206  -42.2770  -56.7120 C.3       11 UNK        -0.0850 
     18 CA         26.6152  -42.7224  -57.4190 C.3       10 UNK         0.0855 
     19 C          26.6784  -42.4064  -58.9439 C.2       10 UNK         0.5543 
     20 N          26.6449  -43.3837  -59.8417 N.am      10 UNK        -0.7343 
     21 O          26.7551  -41.2393  -59.3201 O.2       10 UNK        -0.5027 
     22 N          26.2764  -44.1158  -57.0895 N.am      10 UNK        -0.4495 
     23 C          25.0739  -44.6775  -57.2639 C.2       10 UNK         0.4903 
     24 O          24.0743  -44.0511  -57.6207 O.2       10 UNK        -0.4860 
     25 CA         24.9802  -46.1972  -57.0059 C.3       9 UNK         0.0227 
     26 CB         23.7768  -46.8462  -57.7204 C.3       9 UNK        -0.1964 
     27 N          26.2085  -46.9411  -57.3211 N.am      9 UNK        -0.4231 
     28 C          26.8788  -46.9537  -58.4855 C.2       9 UNK         0.5014 
     29 O          26.5873  -46.2608  -59.4610 O.2       9 UNK        -0.5270 
     30 CA         28.0820  -47.9052  -58.5765 C.3       8 UNK         0.0284 
     31 CB         29.2846  -47.3441  -57.7989 C.3       8 UNK        -0.1977 
     32 N          27.7675  -49.2520  -58.0977 N.am      8 UNK        -0.4342 
     33 C          26.8786  -50.0841  -58.6612 C.2       8 UNK         0.5039 
     34 O          26.2598  -49.8362  -59.6967 O.2       8 UNK        -0.5547 
     35 CA         26.6290  -51.4172  -57.9409 C.3       7 UNK         0.0281 
     36 CB         27.6956  -52.4559  -58.3242 C.3       7 UNK        -0.1963 
     37 N          26.6086  -51.2369  -56.4885 N.am      7 UNK        -0.4444 
     38 C          25.5333  -50.8354  -55.7966 C.2       7 UNK         0.5104 
     39 O          24.4240  -50.6527  -56.2985 O.2       7 UNK        -0.5100 
     40 CA         25.7184  -50.5947  -54.2871 C.3       6 UNK         0.0396 
     41 CB         25.3417  -51.8559  -53.4937 C.3       6 UNK        -0.1801 
     42 N          27.0746  -50.1786  -53.9186 N.am      6 UNK        -0.4747 
     43 C          27.6183  -48.9930  -54.2301 C.2       6 UNK         0.5012 
     44 O          27.0370  -48.1205  -54.8756 O.2       6 UNK        -0.5003 
     45 CA         29.0744  -48.7632  -53.7816 C.3       5 UNK         0.0782 
     46 C46        29.1103  -48.2550  -52.3207 C.3       11 UNK        -0.0868 
     47 S47        30.8048  -47.9178  -51.7319 S.3       11 UNK        -0.2515 
     48 C48        30.7916  -46.0981  -51.6237 C.3       11 UNK         0.0199 
     49 N          29.9442  -49.9310  -53.9774 N.am      5 UNK        -0.4607 
     50 C          30.1436  -50.5831  -55.1307 C.2       4 UNK         0.5031 
     51 O          29.4683  -50.3934  -56.1434 O.2       4 UNK        -0.5119 
     52 CA         31.2964  -51.6103  -55.1544 C.3       4 UNK         0.0263 
     53 CB         31.7305  -51.9658  -56.5921 C.3       4 UNK        -0.1967 
     54 N          32.4727  -51.2159  -54.3603 N.am      4 UNK        -0.4237 
     55 C          33.1625  -50.0683  -54.4576 C.2       3 UNK         0.4908 
     56 O          32.8600  -49.1381  -55.2043 O.2       3 UNK        -0.5102 
     57 CA         34.4121  -49.9394  -53.5825 C.3       3 UNK         0.0241 
     58 CB         35.6898  -50.1718  -54.4076 C.3       3 UNK        -0.1971 
     59 N          34.4356  -48.6014  -52.9980 N.am      3 UNK        -0.4139 
     60 C          34.9181  -48.3061  -51.7853 C.2       2 UNK         0.5016 
     61 O          35.4792  -49.1320  -51.0621 O.2       2 UNK        -0.5319 
     62 CA         34.7096  -46.8679  -51.2687 C.3       2 UNK         0.0286 
     63 CB         35.7597  -46.4516  -50.2157 C.3       2 UNK        -0.1963 
     64 N          34.5909  -45.8466  -52.3188 N.am      2 UNK        -0.4790 
     65 C          35.5356  -45.4408  -53.1843 C.2       1 UNK         0.5024 
     66 O          36.6594  -45.9392  -53.2587 O.2       1 UNK        -0.4888 
     67 H67        32.1388  -42.5090  -51.6183 H         1 UNK         0.0892 
     68 H68        32.9753  -40.9610  -51.7616 H         1 UNK         0.0892 
     69 H69        32.1927  -41.6611  -53.1730 H         1 UNK         0.0892 
     70 H70        33.1450  -43.6436  -54.1414 H         1 UNK         0.3107 
     71 H71        36.0249  -43.5854  -54.0774 H         1 UNK         0.0773 
     72 H72        36.0128  -44.7675  -56.0469 H         1 UNK         0.0680 
     73 H73        34.5536  -43.8473  -56.1848 H         1 UNK         0.0680 
     74 H74        31.9364  -46.5456  -56.8370 H         1 UNK         0.0650 
     75 H75        32.5319  -44.9500  -57.2294 H         1 UNK         0.0650 
     76 H76        32.0817  -46.8185  -53.9750 H         1 UNK         0.1397 
     77 H77        29.5853  -43.7681  -52.2775 H         1 UNK         0.1363 
     78 H78        31.0489  -43.3599  -56.2815 H         1 UNK         0.1355 
     79 H79        29.5380  -41.5897  -53.4370 H         1 UNK         0.0707 
     80 H80        30.0225  -41.4352  -55.1035 H         1 UNK         0.0707 
     81 H81        28.1903  -41.2593  -57.0021 H         1 UNK         0.1034 
     82 H82        28.7513  -42.9133  -57.0206 H         1 UNK         0.1034 
     83 H83        25.8077  -42.0986  -57.0302 H         1 UNK         0.0482 
     84 H84        26.5762  -44.3588  -59.5630 H         1 UNK         0.3460 
     85 H85        26.6830  -43.1497  -60.8206 H         1 UNK         0.3460 
     86 H86        27.0388  -44.6992  -56.7803 H         1 UNK         0.2989 
     87 H87        24.8278  -46.3115  -55.9318 H         1 UNK         0.0559 
     88 H88        23.8436  -46.7323  -58.8030 H         1 UNK         0.0848 
     89 H89        22.8368  -46.3947  -57.4010 H         1 UNK         0.0848 
     90 H90        23.7137  -47.9121  -57.4995 H         1 UNK         0.0848 
     91 H91        26.5681  -47.5079  -56.5542 H         1 UNK         0.3144 
     92 H92        28.3647  -47.9865  -59.6280 H         1 UNK         0.0727 
     93 H93        29.0707  -47.2396  -56.7351 H         1 UNK         0.0790 
     94 H94        29.5662  -46.3589  -58.1730 H         1 UNK         0.0790 
     95 H95        30.1560  -47.9917  -57.8995 H         1 UNK         0.0790 
     96 H96        28.2917  -49.5854  -57.2905 H         1 UNK         0.3215 
     97 H97        25.6586  -51.7986  -58.2669 H         1 UNK         0.0863 
     98 H98        27.5159  -53.4109  -57.8303 H         1 UNK         0.0808 
     99 H99        28.6996  -52.1244  -58.0609 H         1 UNK         0.0808 
    100 H100       27.6873  -52.6402  -59.3993 H         1 UNK         0.0808 
    101 H101       27.4984  -51.2972  -56.0101 H         1 UNK         0.3118 
    102 H102       25.0327  -49.7954  -53.9976 H         1 UNK         0.0546 
    103 H103       26.0040  -52.6917  -53.7228 H         1 UNK         0.0828 
    104 H104       24.3245  -52.1737  -53.7272 H         1 UNK         0.0828 
    105 H105       25.3836  -51.6772  -52.4192 H         1 UNK         0.0828 
    106 H106       27.6343  -50.8408  -53.4000 H         1 UNK         0.3005 
    107 H107       29.4743  -47.9722  -54.4195 H         1 UNK         0.1257 
    108 H108       28.6679  -48.9919  -51.6475 H         1 UNK         0.0775 
    109 H109       28.5051  -47.3519  -52.2179 H         1 UNK         0.0775 
    110 H110       29.9156  -45.7911  -51.0498 H         1 UNK         0.0840 
    111 H111       31.6545  -45.7767  -51.0413 H         1 UNK         0.0840 
    112 H112       30.5528  -50.1468  -53.2014 H         1 UNK         0.2987 
    113 H113       30.9013  -52.5169  -54.6940 H         1 UNK         0.0785 
    114 H114       30.9059  -52.4011  -57.1567 H         1 UNK         0.0798 
    115 H115       32.5404  -52.6951  -56.5946 H         1 UNK         0.0798 
    116 H116       32.0707  -51.0847  -57.1378 H         1 UNK         0.0798 
    117 H117       32.7989  -51.9099  -53.7012 H         1 UNK         0.3079 
    118 H118       34.3586  -50.6863  -52.7873 H         1 UNK         0.0794 
    119 H119       35.6847  -51.1603  -54.8685 H         1 UNK         0.0786 
    120 H120       36.5813  -50.1078  -53.7834 H         1 UNK         0.0786 
    121 H121       35.7885  -49.4364  -55.2075 H         1 UNK         0.0786 
    122 H122       33.9860  -47.8838  -53.5514 H         1 UNK         0.3032 
    123 H123       33.7453  -46.8908  -50.7601 H         1 UNK         0.1094 
    124 H124       35.5785  -45.4398  -49.8527 H         1 UNK         0.0794 
    125 H125       35.7313  -47.1136  -49.3493 H         1 UNK         0.0794 
    126 H126       36.7729  -46.4880  -50.6170 H         1 UNK         0.0794 
    127 H127       33.7046  -45.3644  -52.3612 H         1 UNK         0.3016 
@<TRIPOS>BOND
     1    1    2 1    
     2    1   67 1    
     3    1   68 1    
     4    1   69 1    
     5    2    3 2    
     6    2    4 am   BACKBONE|DICT|INTERRES
     7    4    5 1    
     8    4   70 1    
     9    5    6 1    
    10    5   65 1    
    11    5   71 1    
    12    6    7 1    
    13    6   72 1    
    14    6   73 1    
    15    7    8 1    
    16    8    9 1    
    17    8   74 1    
    18    8   75 1    
    19    9   10 ar   
    20    9   14 ar   
    21   10   11 ar   
    22   10   76 1    
    23   11   12 ar   
    24   11   48 1    
    25   12   13 ar   
    26   12   77 1    
    27   13   14 ar   
    28   13   15 1    
    29   14   78 1    
    30   15   16 1    
    31   15   79 1    
    32   15   80 1    
    33   16   17 1    
    34   17   18 1    
    35   17   81 1    
    36   17   82 1    
    37   18   19 1    
    38   18   22 1    
    39   18   83 1    
    40   19   20 am   BACKBONE|DICT|INTERRES
    41   19   21 2    
    42   20   84 1    
    43   20   85 1    
    44   22   23 am   BACKBONE|DICT|INTERRES
    45   22   86 1    
    46   23   24 2    
    47   23   25 1    
    48   25   26 1    
    49   25   27 1    
    50   25   87 1    
    51   26   88 1    
    52   26   89 1    
    53   26   90 1    
    54   27   28 am   BACKBONE|DICT|INTERRES
    55   27   91 1    
    56   28   29 2    
    57   28   30 1    
    58   30   31 1    
    59   30   32 1    
    60   30   92 1    
    61   31   93 1    
    62   31   94 1    
    63   31   95 1    
    64   32   33 am   BACKBONE|DICT|INTERRES
    65   32   96 1    
    66   33   34 2    
    67   33   35 1    
    68   35   36 1    
    69   35   37 1    
    70   35   97 1    
    71   36   98 1    
    72   36   99 1    
    73   36  100 1    
    74   37   38 am   BACKBONE|DICT|INTERRES
    75   37  101 1    
    76   38   39 2    
    77   38   40 1    
    78   40   41 1    
    79   40   42 1    
    80   40  102 1    
    81   41  103 1    
    82   41  104 1    
    83   41  105 1    
    84   42   43 am   BACKBONE|DICT|INTERRES
    85   42  106 1    
    86   43   44 2    
    87   43   45 1    
    88   45   46 1    
    89   45   49 1    
    90   45  107 1    
    91   46   47 1    
    92   46  108 1    
    93   46  109 1    
    94   47   48 1    
    95   48  110 1    
    96   48  111 1    
    97   49   50 am   BACKBONE|DICT|INTERRES
    98   49  112 1    
    99   50   51 2    
   100   50   52 1    
   101   52   53 1    
   102   52   54 1    
   103   52  113 1    
   104   53  114 1    
   105   53  115 1    
   106   53  116 1    
   107   54   55 am   BACKBONE|DICT|INTERRES
   108   54  117 1    
   109   55   56 2    
   110   55   57 1    
   111   57   58 1    
   112   57   59 1    
   113   57  118 1    
   114   58  119 1    
   115   58  120 1    
   116   58  121 1    
   117   59   60 am   BACKBONE|DICT|INTERRES
   118   59  122 1    
   119   60   61 2    
   120   60   62 1    
   121   62   63 1    
   122   62   64 1    
   123   62  123 1    
   124   63  124 1    
   125   63  125 1    
   126   63  126 1    
   127   64   65 am   BACKBONE|DICT|INTERRES
   128   64  127 1    
   129   65   66 2    
@<TRIPOS>SUBSTRUCTURE
     1 UNK         1 GROUP             0       ****    0 ROOT    
