@<TRIPOS>MOLECULE
3R134
127   129    1
SMALL
USER_CHARGES


@<TRIPOS>ATOM
      1 CA         32.7733  -44.7763  -48.3191 C.3       0 UNK        -0.1968 
      2 C          33.2308  -45.4785  -49.5883 C.2       0 UNK         0.4852 
      3 O          32.9368  -46.6604  -49.7736 O.2       0 UNK        -0.5359 
      4 N          33.9319  -44.7573  -50.4755 N.am      1 UNK        -0.4300 
      5 CA         34.4808  -45.2606  -51.7440 C.3       1 UNK         0.0863 
      6 C6         35.4375  -44.2460  -52.4170 C.3       11 UNK        -0.0953 
      7 S7         34.7188  -42.5854  -52.6747 S.3       11 UNK        -0.2369 
      8 C8         34.8731  -42.3719  -54.4759 C.3       11 UNK         0.0226 
      9 C9         33.6547  -42.8942  -55.2227 C.ar      11 UNK        -0.0699 
     10 C10        33.6617  -44.1658  -55.8064 C.ar      11 UNK        -0.0804 
     11 C11        32.5535  -44.6299  -56.5252 C.ar      11 UNK        -0.0871 
     12 C12        31.4413  -43.7899  -56.6716 C.ar      11 UNK        -0.1008 
     13 C13        31.4196  -42.5216  -56.0868 C.ar      11 UNK        -0.0735 
     14 C14        32.5266  -42.0805  -55.3592 C.ar      11 UNK        -0.0945 
     15 C15        30.2079  -41.6234  -56.2721 C.3       11 UNK         0.0169 
     16 S16        28.8866  -42.0365  -55.0885 S.3       11 UNK        -0.2669 
     17 C17        27.4067  -41.8965  -56.1504 C.3       11 UNK        -0.0850 
     18 CA         26.2250  -42.8107  -55.7105 C.3       10 UNK         0.0855 
     19 C          24.9752  -42.6019  -56.6200 C.2       10 UNK         0.5543 
     20 N          24.3121  -43.6420  -57.1127 N.am      10 UNK        -0.7343 
     21 O          24.5751  -41.4648  -56.8582 O.2       10 UNK        -0.5027 
     22 N          26.5886  -44.2229  -55.4870 N.am      10 UNK        -0.4495 
     23 C          27.1595  -45.0567  -56.3653 C.2       10 UNK         0.4903 
     24 O          27.5828  -44.7103  -57.4698 O.2       10 UNK        -0.4860 
     25 CA         27.2475  -46.5435  -55.9556 C.3       9 UNK         0.0227 
     26 CB         26.4089  -46.9190  -54.7113 C.3       9 UNK        -0.1964 
     27 N          26.9096  -47.4317  -57.0719 N.am      9 UNK        -0.4231 
     28 C          25.7837  -47.4282  -57.8041 C.2       9 UNK         0.5014 
     29 O          24.8193  -46.6919  -57.5855 O.2       9 UNK        -0.5270 
     30 CA         25.7193  -48.4168  -58.9777 C.3       8 UNK         0.0284 
     31 CB         26.5770  -47.9167  -60.1527 C.3       8 UNK        -0.1977 
     32 N          26.1828  -49.7425  -58.5675 N.am      8 UNK        -0.4342 
     33 C          25.4312  -50.8504  -58.5260 C.2       8 UNK         0.5039 
     34 O          24.2622  -50.9044  -58.9112 O.2       8 UNK        -0.5547 
     35 CA         26.0873  -52.1236  -57.9529 C.3       7 UNK         0.0281 
     36 CB         26.6442  -52.9980  -59.0882 C.3       7 UNK        -0.1963 
     37 N          27.1565  -51.8481  -56.9880 N.am      7 UNK        -0.4444 
     38 C          26.9786  -51.2510  -55.8017 C.2       7 UNK         0.5104 
     39 O          25.8721  -50.9700  -55.3404 O.2       7 UNK        -0.5100 
     40 CA         28.2364  -50.8862  -54.9903 C.3       6 UNK         0.0396 
     41 CB         28.4583  -51.9291  -53.8831 C.3       6 UNK        -0.1801 
     42 N          29.4924  -50.7037  -55.7363 N.am      6 UNK        -0.4747 
     43 C          29.6990  -49.9317  -56.8179 C.2       6 UNK         0.5012 
     44 O          28.7903  -49.4307  -57.4820 O.2       6 UNK        -0.5003 
     45 CA         31.1660  -49.6742  -57.2204 C.3       5 UNK         0.0782 
     46 C46        31.3677  -48.4092  -58.0990 C.3       11 UNK        -0.0868 
     47 S47        30.9655  -46.8392  -57.2528 S.3       11 UNK        -0.2515 
     48 C48        32.5958  -46.0242  -57.1537 C.3       11 UNK         0.0199 
     49 N          32.0139  -49.6510  -56.0285 N.am      5 UNK        -0.4607 
     50 C          33.1746  -50.3027  -55.8914 C.2       4 UNK         0.5031 
     51 O          33.6633  -51.0116  -56.7715 O.2       4 UNK        -0.5119 
     52 CA         33.9290  -50.1477  -54.5572 C.3       4 UNK         0.0263 
     53 CB         35.1971  -49.3009  -54.7552 C.3       4 UNK        -0.1967 
     54 N          33.1087  -49.5580  -53.4941 N.am      4 UNK        -0.4237 
     55 C          32.1427  -50.2187  -52.8351 C.2       3 UNK         0.4908 
     56 O          31.8967  -51.4108  -53.0190 O.2       3 UNK        -0.5102 
     57 CA         31.2837  -49.4322  -51.8248 C.3       3 UNK         0.0241 
     58 CB         31.7501  -49.7186  -50.3892 C.3       3 UNK        -0.1971 
     59 N          31.2742  -47.9850  -52.0544 N.am      3 UNK        -0.4139 
     60 C          30.7605  -47.3916  -53.1443 C.2       2 UNK         0.5016 
     61 O          30.1675  -48.0060  -54.0288 O.2       2 UNK        -0.5319 
     62 CA         30.9958  -45.8778  -53.3124 C.3       2 UNK         0.0286 
     63 CB         29.7502  -45.0847  -52.8932 C.3       2 UNK        -0.1963 
     64 N          32.1577  -45.3692  -52.5766 N.am      2 UNK        -0.4790 
     65 C          33.4205  -45.7961  -52.7290 C.2       1 UNK         0.5024 
     66 O          33.7533  -46.6367  -53.5644 O.2       1 UNK        -0.4888 
     67 H67        33.0965  -43.7358  -48.2889 H         1 UNK         0.0892 
     68 H68        31.6860  -44.7968  -48.2506 H         1 UNK         0.0892 
     69 H69        33.1796  -45.2833  -47.4443 H         1 UNK         0.0892 
     70 H70        34.1251  -43.7840  -50.2836 H         1 UNK         0.3107 
     71 H71        35.0857  -46.1311  -51.4806 H         1 UNK         0.0773 
     72 H72        35.8163  -44.6458  -53.3594 H         1 UNK         0.0680 
     73 H73        36.3194  -44.1181  -51.7877 H         1 UNK         0.0680 
     74 H74        35.7858  -42.8470  -54.8384 H         1 UNK         0.0650 
     75 H75        34.9915  -41.3076  -54.6848 H         1 UNK         0.0650 
     76 H76        34.5328  -44.7976  -55.6978 H         1 UNK         0.1397 
     77 H77        30.5796  -44.1173  -57.2375 H         1 UNK         0.1363 
     78 H78        32.5171  -41.0969  -54.9095 H         1 UNK         0.1355 
     79 H79        30.4824  -40.5752  -56.1443 H         1 UNK         0.0707 
     80 H80        29.8569  -41.7186  -57.3001 H         1 UNK         0.0707 
     81 H81        27.6716  -42.1188  -57.1847 H         1 UNK         0.1034 
     82 H82        27.0974  -40.8497  -56.1434 H         1 UNK         0.1034 
     83 H83        25.9070  -42.4575  -54.7290 H         1 UNK         0.0482 
     84 H84        23.4998  -43.4760  -57.6850 H         1 UNK         0.3460 
     85 H85        24.6375  -44.5901  -56.9728 H         1 UNK         0.3460 
     86 H86        26.2622  -44.6110  -54.6145 H         1 UNK         0.2989 
     87 H87        28.2951  -46.7357  -55.7207 H         1 UNK         0.0559 
     88 H88        26.7455  -46.3884  -53.8207 H         1 UNK         0.0848 
     89 H89        26.4970  -47.9829  -54.4913 H         1 UNK         0.0848 
     90 H90        25.3490  -46.7030  -54.8515 H         1 UNK         0.0848 
     91 H91        27.6568  -48.0687  -57.3415 H         1 UNK         0.3144 
     92 H92        24.6806  -48.4613  -59.3117 H         1 UNK         0.0727 
     93 H93        26.4828  -48.5741  -61.0171 H         1 UNK         0.0790 
     94 H94        27.6343  -47.8601  -59.8892 H         1 UNK         0.0790 
     95 H95        26.2647  -46.9197  -60.4666 H         1 UNK         0.0790 
     96 H96        27.1313  -49.7936  -58.2019 H         1 UNK         0.3215 
     97 H97        25.3079  -52.6873  -57.4357 H         1 UNK         0.0863 
     98 H98        27.0384  -53.9405  -58.7078 H         1 UNK         0.0808 
     99 H99        27.4429  -52.4928  -59.6329 H         1 UNK         0.0808 
    100 H100       25.8632  -53.2433  -59.8094 H         1 UNK         0.0808 
    101 H101       28.1030  -52.0422  -57.2806 H         1 UNK         0.3118 
    102 H102       28.0277  -49.9285  -54.5099 H         1 UNK         0.0546 
    103 H103       28.7564  -52.8947  -54.2932 H         1 UNK         0.0828 
    104 H104       27.5481  -52.0882  -53.3028 H         1 UNK         0.0828 
    105 H105       29.2276  -51.6102  -53.1820 H         1 UNK         0.0828 
    106 H106       30.3161  -51.0777  -55.2853 H         1 UNK         0.3005 
    107 H107       31.4332  -50.5370  -57.8347 H         1 UNK         0.1257 
    108 H108       32.4000  -48.3745  -58.4500 H         1 UNK         0.0775 
    109 H109       30.7585  -48.4730  -59.0023 H         1 UNK         0.0775 
    110 H110       33.2634  -46.6705  -56.5810 H         1 UNK         0.0840 
    111 H111       33.0164  -45.9408  -58.1565 H         1 UNK         0.0840 
    112 H112       31.6575  -49.0892  -55.2630 H         1 UNK         0.2987 
    113 H113       34.2367  -51.1459  -54.2382 H         1 UNK         0.0785 
    114 H114       35.7333  -49.1573  -53.8170 H         1 UNK         0.0798 
    115 H115       34.9668  -48.3174  -55.1660 H         1 UNK         0.0798 
    116 H116       35.8835  -49.7867  -55.4499 H         1 UNK         0.0798 
    117 H117       33.2445  -48.5665  -53.3211 H         1 UNK         0.3079 
    118 H118       30.2560  -49.7858  -51.9261 H         1 UNK         0.0794 
    119 H119       31.7089  -50.7865  -50.1702 H         1 UNK         0.0786 
    120 H120       31.1193  -49.2131  -49.6577 H         1 UNK         0.0786 
    121 H121       32.7780  -49.3914  -50.2274 H         1 UNK         0.0786 
    122 H122       31.7621  -47.4147  -51.3706 H         1 UNK         0.3032 
    123 H123       31.1746  -45.6991  -54.3733 H         1 UNK         0.1094 
    124 H124       29.4964  -45.2504  -51.8455 H         1 UNK         0.0794 
    125 H125       29.8954  -44.0147  -53.0410 H         1 UNK         0.0794 
    126 H126       28.8881  -45.3756  -53.4924 H         1 UNK         0.0794 
    127 H127       31.9788  -44.6735  -51.8675 H         1 UNK         0.3016 
@<TRIPOS>BOND
     1    1    2 1    
     2    1   67 1    
     3    1   68 1    
     4    1   69 1    
     5    2    3 2    
     6    2    4 am   BACKBONE|DICT|INTERRES
     7    4    5 1    
     8    4   70 1    
     9    5    6 1    
    10    5   65 1    
    11    5   71 1    
    12    6    7 1    
    13    6   72 1    
    14    6   73 1    
    15    7    8 1    
    16    8    9 1    
    17    8   74 1    
    18    8   75 1    
    19    9   10 ar   
    20    9   14 ar   
    21   10   11 ar   
    22   10   76 1    
    23   11   12 ar   
    24   11   48 1    
    25   12   13 ar   
    26   12   77 1    
    27   13   14 ar   
    28   13   15 1    
    29   14   78 1    
    30   15   16 1    
    31   15   79 1    
    32   15   80 1    
    33   16   17 1    
    34   17   18 1    
    35   17   81 1    
    36   17   82 1    
    37   18   19 1    
    38   18   22 1    
    39   18   83 1    
    40   19   20 am   BACKBONE|DICT|INTERRES
    41   19   21 2    
    42   20   84 1    
    43   20   85 1    
    44   22   23 am   BACKBONE|DICT|INTERRES
    45   22   86 1    
    46   23   24 2    
    47   23   25 1    
    48   25   26 1    
    49   25   27 1    
    50   25   87 1    
    51   26   88 1    
    52   26   89 1    
    53   26   90 1    
    54   27   28 am   BACKBONE|DICT|INTERRES
    55   27   91 1    
    56   28   29 2    
    57   28   30 1    
    58   30   31 1    
    59   30   32 1    
    60   30   92 1    
    61   31   93 1    
    62   31   94 1    
    63   31   95 1    
    64   32   33 am   BACKBONE|DICT|INTERRES
    65   32   96 1    
    66   33   34 2    
    67   33   35 1    
    68   35   36 1    
    69   35   37 1    
    70   35   97 1    
    71   36   98 1    
    72   36   99 1    
    73   36  100 1    
    74   37   38 am   BACKBONE|DICT|INTERRES
    75   37  101 1    
    76   38   39 2    
    77   38   40 1    
    78   40   41 1    
    79   40   42 1    
    80   40  102 1    
    81   41  103 1    
    82   41  104 1    
    83   41  105 1    
    84   42   43 am   BACKBONE|DICT|INTERRES
    85   42  106 1    
    86   43   44 2    
    87   43   45 1    
    88   45   46 1    
    89   45   49 1    
    90   45  107 1    
    91   46   47 1    
    92   46  108 1    
    93   46  109 1    
    94   47   48 1    
    95   48  110 1    
    96   48  111 1    
    97   49   50 am   BACKBONE|DICT|INTERRES
    98   49  112 1    
    99   50   51 2    
   100   50   52 1    
   101   52   53 1    
   102   52   54 1    
   103   52  113 1    
   104   53  114 1    
   105   53  115 1    
   106   53  116 1    
   107   54   55 am   BACKBONE|DICT|INTERRES
   108   54  117 1    
   109   55   56 2    
   110   55   57 1    
   111   57   58 1    
   112   57   59 1    
   113   57  118 1    
   114   58  119 1    
   115   58  120 1    
   116   58  121 1    
   117   59   60 am   BACKBONE|DICT|INTERRES
   118   59  122 1    
   119   60   61 2    
   120   60   62 1    
   121   62   63 1    
   122   62   64 1    
   123   62  123 1    
   124   63  124 1    
   125   63  125 1    
   126   63  126 1    
   127   64   65 am   BACKBONE|DICT|INTERRES
   128   64  127 1    
   129   65   66 2    
@<TRIPOS>SUBSTRUCTURE
     1 UNK         1 GROUP             0       ****    0 ROOT    
