@<TRIPOS>MOLECULE
3R134
127   129    1
SMALL
USER_CHARGES


@<TRIPOS>ATOM
      1 CA         30.4540  -47.1645  -49.0592 C.3       0 UNK        -0.1968 
      2 C          31.8347  -46.5751  -49.3086 C.2       0 UNK         0.4852 
      3 O          32.7998  -46.9902  -48.6654 O.2       0 UNK        -0.5359 
      4 N          31.9321  -45.6093  -50.2332 N.am      1 UNK        -0.4300 
      5 CA         33.1784  -44.9527  -50.6489 C.3       1 UNK         0.0863 
      6 C6         32.8692  -43.7133  -51.5227 C.3       11 UNK        -0.0953 
      7 S7         34.3131  -42.6324  -51.7870 S.3       11 UNK        -0.2369 
      8 C8         33.6011  -41.3492  -52.8719 C.3       11 UNK         0.0226 
      9 C9         32.9813  -41.8912  -54.1589 C.ar      11 UNK        -0.0699 
     10 C10        33.6166  -42.8892  -54.9073 C.ar      11 UNK        -0.0804 
     11 C11        33.0395  -43.3807  -56.0820 C.ar      11 UNK        -0.0871 
     12 C12        31.8438  -42.8170  -56.5403 C.ar      11 UNK        -0.1008 
     13 C13        31.1795  -41.8446  -55.7889 C.ar      11 UNK        -0.0735 
     14 C14        31.7563  -41.3830  -54.6021 C.ar      11 UNK        -0.0945 
     15 C15        29.8297  -41.3086  -56.2454 C.3       11 UNK         0.0169 
     16 S16        28.5064  -42.5413  -56.0020 S.3       11 UNK        -0.2669 
     17 C17        28.5777  -43.4866  -57.5636 C.3       11 UNK        -0.0850 
     18 CA         27.1653  -43.8691  -58.0714 C.3       10 UNK         0.0855 
     19 C          27.2172  -44.3373  -59.5484 C.2       10 UNK         0.5543 
     20 N          26.6679  -43.5602  -60.4712 N.am      10 UNK        -0.7343 
     21 O          27.7939  -45.3749  -59.8648 O.2       10 UNK        -0.5027 
     22 N          26.5599  -44.9092  -57.2320 N.am      10 UNK        -0.4495 
     23 C          25.2469  -45.1488  -57.1470 C.2       10 UNK         0.4903 
     24 O          24.3800  -44.4286  -57.6461 O.2       10 UNK        -0.4860 
     25 CA         24.8577  -46.4350  -56.3958 C.3       9 UNK         0.0227 
     26 CB         23.3328  -46.6411  -56.2760 C.3       9 UNK        -0.1964 
     27 N          25.5095  -47.6092  -56.9865 N.am      9 UNK        -0.4231 
     28 C          25.3743  -48.0856  -58.2347 C.2       9 UNK         0.5014 
     29 O          24.5773  -47.6424  -59.0628 O.2       9 UNK        -0.5270 
     30 CA         26.2922  -49.2522  -58.6472 C.3       8 UNK         0.0284 
     31 CB         27.4298  -48.7412  -59.5453 C.3       8 UNK        -0.1977 
     32 N          26.8692  -49.9800  -57.5135 N.am      8 UNK        -0.4342 
     33 C          26.1843  -50.8143  -56.7196 C.2       8 UNK         0.5039 
     34 O          24.9986  -51.1022  -56.8881 O.2       8 UNK        -0.5547 
     35 CA         26.9418  -51.4114  -55.5222 C.3       7 UNK         0.0281 
     36 CB         27.7939  -52.6122  -55.9634 C.3       7 UNK        -0.1963 
     37 N          27.7824  -50.4302  -54.8281 N.am      7 UNK        -0.4444 
     38 C          27.3139  -49.3604  -54.1670 C.2       7 UNK         0.5104 
     39 O          26.1179  -49.0936  -54.0529 O.2       7 UNK        -0.5100 
     40 CA         28.3525  -48.4027  -53.5604 C.3       6 UNK         0.0396 
     41 CB         28.9225  -48.9673  -52.2499 C.3       6 UNK        -0.1801 
     42 N          29.4453  -48.1081  -54.4865 N.am      6 UNK        -0.4747 
     43 C          29.3122  -47.4347  -55.6378 C.2       6 UNK         0.5012 
     44 O          28.2575  -46.9209  -56.0123 O.2       6 UNK        -0.5003 
     45 CA         30.5491  -47.3563  -56.5514 C.3       5 UNK         0.0782 
     46 C46        31.4512  -46.1551  -56.1850 C.3       11 UNK        -0.0868 
     47 S47        32.5773  -45.7486  -57.5643 S.3       11 UNK        -0.2515 
     48 C48        33.7219  -44.5256  -56.8283 C.3       11 UNK         0.0199 
     49 N          31.2960  -48.6171  -56.5711 N.am      5 UNK        -0.4607 
     50 C          30.8372  -49.7654  -57.0845 C.2       4 UNK         0.5031 
     51 O          29.7273  -49.8920  -57.5992 O.2       4 UNK        -0.5119 
     52 CA         31.7605  -50.9877  -56.9683 C.3       4 UNK         0.0263 
     53 CB         32.8537  -50.9483  -58.0481 C.3       4 UNK        -0.1967 
     54 N          32.3753  -51.1022  -55.6437 N.am      4 UNK        -0.4237 
     55 C          31.6919  -51.3427  -54.5157 C.2       3 UNK         0.4908 
     56 O          30.4734  -51.5107  -54.4718 O.2       3 UNK        -0.5102 
     57 CA         32.5002  -51.3542  -53.2081 C.3       3 UNK         0.0241 
     58 CB         33.2282  -52.6964  -53.0297 C.3       3 UNK        -0.1971 
     59 N          33.4583  -50.2479  -53.0877 N.am      3 UNK        -0.4139 
     60 C          33.1250  -48.9512  -53.1271 C.2       2 UNK         0.5016 
     61 O          31.9890  -48.5385  -53.3748 O.2       2 UNK        -0.5319 
     62 CA         34.2313  -47.9314  -52.8503 C.3       2 UNK         0.0286 
     63 CB         34.9340  -47.5009  -54.1492 C.3       2 UNK        -0.1963 
     64 N          33.5822  -46.7877  -52.2213 N.am      2 UNK        -0.4790 
     65 C          34.1398  -45.9401  -51.3513 C.2       1 UNK         0.5024 
     66 O          35.3380  -45.9458  -51.0641 O.2       1 UNK        -0.4888 
     67 H67        29.6889  -46.6897  -49.6731 H         1 UNK         0.0892 
     68 H68        30.4561  -48.2309  -49.2834 H         1 UNK         0.0892 
     69 H69        30.1752  -47.0370  -48.0136 H         1 UNK         0.0892 
     70 H70        31.0972  -45.3048  -50.7130 H         1 UNK         0.3107 
     71 H71        33.6754  -44.6092  -49.7388 H         1 UNK         0.0773 
     72 H72        32.0979  -43.1060  -51.0460 H         1 UNK         0.0680 
     73 H73        32.4600  -44.0208  -52.4866 H         1 UNK         0.0680 
     74 H74        34.3867  -40.6403  -53.1355 H         1 UNK         0.0650 
     75 H75        32.8612  -40.7907  -52.2964 H         1 UNK         0.0650 
     76 H76        34.5556  -43.2991  -54.5613 H         1 UNK         0.1397 
     77 H77        31.4028  -43.1714  -57.4606 H         1 UNK         0.1363 
     78 H78        31.2486  -40.6253  -54.0209 H         1 UNK         0.1355 
     79 H79        29.8819  -40.9943  -57.2885 H         1 UNK         0.0707 
     80 H80        29.5698  -40.4138  -55.6777 H         1 UNK         0.0707 
     81 H81        29.0922  -42.8845  -58.3146 H         1 UNK         0.1034 
     82 H82        29.1902  -44.3779  -57.4211 H         1 UNK         0.1034 
     83 H83        26.5386  -42.9759  -58.0183 H         1 UNK         0.0482 
     84 H84        26.7089  -43.8438  -61.4376 H         1 UNK         0.3460 
     85 H85        26.1955  -42.7058  -60.2191 H         1 UNK         0.3460 
     86 H86        27.2003  -45.5799  -56.8143 H         1 UNK         0.2989 
     87 H87        25.2577  -46.3404  -55.3850 H         1 UNK         0.0559 
     88 H88        22.8695  -45.8079  -55.7464 H         1 UNK         0.0848 
     89 H89        23.0997  -47.5493  -55.7203 H         1 UNK         0.0848 
     90 H90        22.8509  -46.7117  -57.2515 H         1 UNK         0.0848 
     91 H91        26.2272  -48.0305  -56.4107 H         1 UNK         0.3144 
     92 H92        25.6885  -49.9516  -59.2293 H         1 UNK         0.0727 
     93 H93        28.0801  -48.0471  -59.0110 H         1 UNK         0.0790 
     94 H94        27.0369  -48.2126  -60.4149 H         1 UNK         0.0790 
     95 H95        28.0458  -49.5616  -59.9140 H         1 UNK         0.0790 
     96 H96        27.8690  -49.8602  -57.3568 H         1 UNK         0.3215 
     97 H97        26.1968  -51.7701  -54.8087 H         1 UNK         0.0863 
     98 H98        28.2544  -53.1061  -55.1077 H         1 UNK         0.0808 
     99 H99        28.5910  -52.3138  -56.6451 H         1 UNK         0.0808 
    100 H100       27.1846  -53.3567  -56.4776 H         1 UNK         0.0808 
    101 H101       28.7843  -50.6059  -54.8293 H         1 UNK         0.3118 
    102 H102       27.8477  -47.4618  -53.3317 H         1 UNK         0.0546 
    103 H103       29.4550  -49.9052  -52.4105 H         1 UNK         0.0828 
    104 H104       28.1279  -49.1600  -51.5281 H         1 UNK         0.0828 
    105 H105       29.6186  -48.2666  -51.7901 H         1 UNK         0.0828 
    106 H106       30.3706  -48.4419  -54.2197 H         1 UNK         0.3005 
    107 H107       30.1602  -47.1937  -57.5599 H         1 UNK         0.1257 
    108 H108       30.8461  -45.2740  -55.9682 H         1 UNK         0.0775 
    109 H109       32.0256  -46.3551  -55.2793 H         1 UNK         0.0775 
    110 H110       34.4012  -45.0574  -56.1609 H         1 UNK         0.0840 
    111 H111       34.3403  -44.1050  -57.6221 H         1 UNK         0.0840 
    112 H112       32.2053  -48.6065  -56.1355 H         1 UNK         0.2987 
    113 H113       31.1509  -51.8788  -57.1335 H         1 UNK         0.0785 
    114 H114       32.4137  -50.8776  -59.0440 H         1 UNK         0.0798 
    115 H115       33.4627  -51.8523  -58.0290 H         1 UNK         0.0798 
    116 H116       33.5183  -50.0923  -57.9245 H         1 UNK         0.0798 
    117 H117       33.3746  -50.9722  -55.5842 H         1 UNK         0.3079 
    118 H118       31.7846  -51.2490  -52.3897 H         1 UNK         0.0794 
    119 H119       33.7037  -52.7628  -52.0509 H         1 UNK         0.0786 
    120 H120       33.9979  -52.8460  -53.7879 H         1 UNK         0.0786 
    121 H121       32.5301  -53.5317  -53.1046 H         1 UNK         0.0786 
    122 H122       34.4167  -50.4999  -52.8917 H         1 UNK         0.3032 
    123 H123       34.9560  -48.3659  -52.1577 H         1 UNK         0.1094 
    124 H124       34.2270  -47.1137  -54.8819 H         1 UNK         0.0794 
    125 H125       35.6774  -46.7262  -53.9606 H         1 UNK         0.0794 
    126 H126       35.4529  -48.3423  -54.6099 H         1 UNK         0.0794 
    127 H127       32.5808  -46.7631  -52.3717 H         1 UNK         0.3016 
@<TRIPOS>BOND
     1    1    2 1    
     2    1   67 1    
     3    1   68 1    
     4    1   69 1    
     5    2    3 2    
     6    2    4 am   BACKBONE|DICT|INTERRES
     7    4    5 1    
     8    4   70 1    
     9    5    6 1    
    10    5   65 1    
    11    5   71 1    
    12    6    7 1    
    13    6   72 1    
    14    6   73 1    
    15    7    8 1    
    16    8    9 1    
    17    8   74 1    
    18    8   75 1    
    19    9   10 ar   
    20    9   14 ar   
    21   10   11 ar   
    22   10   76 1    
    23   11   12 ar   
    24   11   48 1    
    25   12   13 ar   
    26   12   77 1    
    27   13   14 ar   
    28   13   15 1    
    29   14   78 1    
    30   15   16 1    
    31   15   79 1    
    32   15   80 1    
    33   16   17 1    
    34   17   18 1    
    35   17   81 1    
    36   17   82 1    
    37   18   19 1    
    38   18   22 1    
    39   18   83 1    
    40   19   20 am   BACKBONE|DICT|INTERRES
    41   19   21 2    
    42   20   84 1    
    43   20   85 1    
    44   22   23 am   BACKBONE|DICT|INTERRES
    45   22   86 1    
    46   23   24 2    
    47   23   25 1    
    48   25   26 1    
    49   25   27 1    
    50   25   87 1    
    51   26   88 1    
    52   26   89 1    
    53   26   90 1    
    54   27   28 am   BACKBONE|DICT|INTERRES
    55   27   91 1    
    56   28   29 2    
    57   28   30 1    
    58   30   31 1    
    59   30   32 1    
    60   30   92 1    
    61   31   93 1    
    62   31   94 1    
    63   31   95 1    
    64   32   33 am   BACKBONE|DICT|INTERRES
    65   32   96 1    
    66   33   34 2    
    67   33   35 1    
    68   35   36 1    
    69   35   37 1    
    70   35   97 1    
    71   36   98 1    
    72   36   99 1    
    73   36  100 1    
    74   37   38 am   BACKBONE|DICT|INTERRES
    75   37  101 1    
    76   38   39 2    
    77   38   40 1    
    78   40   41 1    
    79   40   42 1    
    80   40  102 1    
    81   41  103 1    
    82   41  104 1    
    83   41  105 1    
    84   42   43 am   BACKBONE|DICT|INTERRES
    85   42  106 1    
    86   43   44 2    
    87   43   45 1    
    88   45   46 1    
    89   45   49 1    
    90   45  107 1    
    91   46   47 1    
    92   46  108 1    
    93   46  109 1    
    94   47   48 1    
    95   48  110 1    
    96   48  111 1    
    97   49   50 am   BACKBONE|DICT|INTERRES
    98   49  112 1    
    99   50   51 2    
   100   50   52 1    
   101   52   53 1    
   102   52   54 1    
   103   52  113 1    
   104   53  114 1    
   105   53  115 1    
   106   53  116 1    
   107   54   55 am   BACKBONE|DICT|INTERRES
   108   54  117 1    
   109   55   56 2    
   110   55   57 1    
   111   57   58 1    
   112   57   59 1    
   113   57  118 1    
   114   58  119 1    
   115   58  120 1    
   116   58  121 1    
   117   59   60 am   BACKBONE|DICT|INTERRES
   118   59  122 1    
   119   60   61 2    
   120   60   62 1    
   121   62   63 1    
   122   62   64 1    
   123   62  123 1    
   124   63  124 1    
   125   63  125 1    
   126   63  126 1    
   127   64   65 am   BACKBONE|DICT|INTERRES
   128   64  127 1    
   129   65   66 2    
@<TRIPOS>SUBSTRUCTURE
     1 UNK         1 GROUP             0       ****    0 ROOT    
