@<TRIPOS>MOLECULE
3R134
127   129    1
SMALL
USER_CHARGES


@<TRIPOS>ATOM
      1 CA         38.8392  -45.7375  -54.6634 C.3       0 UNK        -0.1968 
      2 C          37.5546  -46.5521  -54.6766 C.2       0 UNK         0.4852 
      3 O          37.5419  -47.6691  -55.1970 O.2       0 UNK        -0.5359 
      4 N          36.4749  -46.0139  -54.0945 N.am      1 UNK        -0.4300 
      5 CA         35.1338  -46.6131  -54.0271 C.3       1 UNK         0.0863 
      6 C6         34.0391  -45.5281  -53.8420 C.3       11 UNK        -0.0953 
      7 S7         33.9816  -44.3817  -55.2625 S.3       11 UNK        -0.2369 
      8 C8         32.4341  -44.8847  -56.0813 C.3       11 UNK         0.0226 
      9 C9         31.2902  -43.9229  -55.7869 C.ar      11 UNK        -0.0699 
     10 C10        30.8044  -43.7726  -54.4848 C.ar      11 UNK        -0.0804 
     11 C11        29.7500  -42.8933  -54.2140 C.ar      11 UNK        -0.0871 
     12 C12        29.1960  -42.1498  -55.2595 C.ar      11 UNK        -0.1008 
     13 C13        29.6670  -42.2895  -56.5704 C.ar      11 UNK        -0.0735 
     14 C14        30.7140  -43.1810  -56.8231 C.ar      11 UNK        -0.0945 
     15 C15        29.1183  -41.4377  -57.7146 C.3       11 UNK         0.0169 
     16 S16        27.3414  -41.0371  -57.5854 S.3       11 UNK        -0.2669 
     17 C17        26.5423  -42.5781  -58.1522 C.3       11 UNK        -0.0850 
     18 CA         26.0021  -43.4814  -57.0031 C.3       10 UNK         0.0855 
     19 C          24.6908  -42.9644  -56.3298 C.2       10 UNK         0.5543 
     20 N          23.8619  -43.8378  -55.7691 N.am      10 UNK        -0.7343 
     21 O          24.4193  -41.7674  -56.2911 O.2       10 UNK        -0.5027 
     22 N          25.9384  -44.8962  -57.4071 N.am      10 UNK        -0.4495 
     23 C          25.2094  -45.3943  -58.4174 C.2       10 UNK         0.4903 
     24 O          24.4948  -44.7104  -59.1522 O.2       10 UNK        -0.4860 
     25 CA         25.2982  -46.9177  -58.6363 C.3       9 UNK         0.0227 
     26 CB         24.7673  -47.3683  -60.0137 C.3       9 UNK        -0.1964 
     27 N          26.6455  -47.4415  -58.3911 N.am      9 UNK        -0.4231 
     28 C          27.7810  -47.1372  -59.0391 C.2       9 UNK         0.5014 
     29 O          27.8376  -46.4058  -60.0284 O.2       9 UNK        -0.5270 
     30 CA         29.0889  -47.7260  -58.4748 C.3       8 UNK         0.0284 
     31 CB         29.9249  -46.6266  -57.8035 C.3       8 UNK        -0.1977 
     32 N          28.8750  -48.8075  -57.5095 N.am      8 UNK        -0.4342 
     33 C          28.5026  -50.0534  -57.8318 C.2       8 UNK         0.5039 
     34 O          28.3753  -50.4568  -58.9881 O.2       8 UNK        -0.5547 
     35 CA         28.1869  -50.9957  -56.6609 C.3       7 UNK         0.0281 
     36 CB         29.4649  -51.6906  -56.1739 C.3       7 UNK        -0.1963 
     37 N          27.5467  -50.2943  -55.5433 N.am      7 UNK        -0.4444 
     38 C          26.2769  -49.8620  -55.5606 C.2       7 UNK         0.5104 
     39 O          25.5110  -50.0281  -56.5093 O.2       7 UNK        -0.5100 
     40 CA         25.7837  -49.0814  -54.3308 C.3       6 UNK         0.0396 
     41 CB         25.2847  -50.0465  -53.2441 C.3       6 UNK        -0.1801 
     42 N          26.7997  -48.1920  -53.7652 N.am      6 UNK        -0.4747 
     43 C          27.3130  -47.1182  -54.3840 C.2       6 UNK         0.5012 
     44 O          26.9717  -46.7463  -55.5061 O.2       6 UNK        -0.5003 
     45 CA         28.4103  -46.3407  -53.6347 C.3       5 UNK         0.0782 
     46 C46        27.7899  -45.1488  -52.8613 C.3       11 UNK        -0.0868 
     47 S47        29.0172  -44.2419  -51.8564 S.3       11 UNK        -0.2515 
     48 C48        29.2266  -42.6933  -52.7947 C.3       11 UNK         0.0199 
     49 N          29.2267  -47.1959  -52.7651 N.am      5 UNK        -0.4607 
     50 C          30.0034  -48.2102  -53.1623 C.2       4 UNK         0.5031 
     51 O          30.0647  -48.6092  -54.3285 O.2       4 UNK        -0.5119 
     52 CA         30.8426  -48.8526  -52.0446 C.3       4 UNK         0.0263 
     53 CB         29.9586  -49.5434  -50.9829 C.3       4 UNK        -0.1967 
     54 N          31.8968  -49.7394  -52.5478 N.am      4 UNK        -0.4237 
     55 C          31.7869  -50.9781  -53.0551 C.2       3 UNK         0.4908 
     56 O          30.7318  -51.6099  -53.1120 O.2       3 UNK        -0.5102 
     57 CA         33.0718  -51.6433  -53.5950 C.3       3 UNK         0.0241 
     58 CB         32.9625  -51.8970  -55.1080 C.3       3 UNK        -0.1971 
     59 N          34.2876  -50.8666  -53.3383 N.am      3 UNK        -0.4139 
     60 C          34.9371  -50.8121  -52.1674 C.2       2 UNK         0.5016 
     61 O          34.6309  -51.4819  -51.1807 O.2       2 UNK        -0.5319 
     62 CA         36.1073  -49.8157  -52.0725 C.3       2 UNK         0.0286 
     63 CB         37.4464  -50.5304  -52.3139 C.3       2 UNK        -0.1963 
     64 N          35.9961  -48.6789  -52.9959 N.am      2 UNK        -0.4790 
     65 C          35.0491  -47.7308  -52.9597 C.2       1 UNK         0.5024 
     66 O          34.1318  -47.7370  -52.1373 O.2       1 UNK        -0.4888 
     67 H67        38.7056  -44.7727  -54.1742 H         1 UNK         0.0892 
     68 H68        39.6223  -46.2807  -54.1351 H         1 UNK         0.0892 
     69 H69        39.1779  -45.5562  -55.6831 H         1 UNK         0.0892 
     70 H70        36.5546  -45.1013  -53.6689 H         1 UNK         0.3107 
     71 H71        34.9389  -47.1065  -54.9820 H         1 UNK         0.0773 
     72 H72        33.0558  -45.9824  -53.7089 H         1 UNK         0.0680 
     73 H73        34.2236  -44.9473  -52.9365 H         1 UNK         0.0680 
     74 H74        32.1507  -45.8938  -55.7809 H         1 UNK         0.0650 
     75 H75        32.6225  -44.9338  -57.1548 H         1 UNK         0.0650 
     76 H76        31.2533  -44.3369  -53.6794 H         1 UNK         0.1397 
     77 H77        28.4041  -41.4453  -55.0463 H         1 UNK         0.1363 
     78 H78        31.0943  -43.2850  -57.8302 H         1 UNK         0.1355 
     79 H79        29.6755  -40.5002  -57.7282 H         1 UNK         0.0707 
     80 H80        29.3065  -41.9163  -58.6770 H         1 UNK         0.0707 
     81 H81        27.2648  -43.1340  -58.7519 H         1 UNK         0.1034 
     82 H82        25.7366  -42.3163  -58.8401 H         1 UNK         0.1034 
     83 H83        26.7455  -43.4674  -56.2057 H         1 UNK         0.0482 
     84 H84        24.0722  -44.8226  -55.7854 H         1 UNK         0.3460 
     85 H85        23.0177  -43.5063  -55.3299 H         1 UNK         0.3460 
     86 H86        26.4440  -45.5495  -56.8126 H         1 UNK         0.2989 
     87 H87        24.6601  -47.3692  -57.8753 H         1 UNK         0.0559 
     88 H88        25.3176  -46.9044  -60.8328 H         1 UNK         0.0848 
     89 H89        23.7176  -47.0982  -60.1352 H         1 UNK         0.0848 
     90 H90        24.8382  -48.4496  -60.1311 H         1 UNK         0.0848 
     91 H91        26.7327  -48.0223  -57.5682 H         1 UNK         0.3144 
     92 H92        29.6588  -48.1223  -59.3179 H         1 UNK         0.0727 
     93 H93        30.8790  -47.0219  -57.4566 H         1 UNK         0.0790 
     94 H94        29.4079  -46.1871  -56.9497 H         1 UNK         0.0790 
     95 H95        30.1435  -45.8183  -58.5025 H         1 UNK         0.0790 
     96 H96        28.9945  -48.5812  -56.5301 H         1 UNK         0.3215 
     97 H97        27.5000  -51.7630  -57.0255 H         1 UNK         0.0863 
     98 H98        30.1903  -50.9702  -55.7952 H         1 UNK         0.0808 
     99 H99        29.9440  -52.2424  -56.9838 H         1 UNK         0.0808 
    100 H100       29.2521  -52.4031  -55.3768 H         1 UNK         0.0808 
    101 H101       28.1264  -50.0843  -54.7414 H         1 UNK         0.3118 
    102 H102       24.9411  -48.4633  -54.6485 H         1 UNK         0.0546 
    103 H103       24.8498  -49.5069  -52.4027 H         1 UNK         0.0828 
    104 H104       26.0878  -50.6772  -52.8607 H         1 UNK         0.0828 
    105 H105       24.5106  -50.7079  -53.6362 H         1 UNK         0.0828 
    106 H106       27.1454  -48.4185  -52.8439 H         1 UNK         0.3005 
    107 H107       29.0758  -45.9406  -54.4015 H         1 UNK         0.1257 
    108 H108       27.0084  -45.4973  -52.1829 H         1 UNK         0.0775 
    109 H109       27.3031  -44.4567  -53.5517 H         1 UNK         0.0775 
    110 H110       28.2710  -42.1664  -52.8054 H         1 UNK         0.0840 
    111 H111       29.9244  -42.0512  -52.2559 H         1 UNK         0.0840 
    112 H112       29.2513  -46.9173  -51.7944 H         1 UNK         0.2987 
    113 H113       31.3747  -48.0380  -51.5503 H         1 UNK         0.0785 
    114 H114       30.5648  -50.0520  -50.2331 H         1 UNK         0.0798 
    115 H115       29.3378  -48.8201  -50.4537 H         1 UNK         0.0798 
    116 H116       29.2860  -50.2790  -51.4248 H         1 UNK         0.0798 
    117 H117       32.8167  -49.3150  -52.5500 H         1 UNK         0.3079 
    118 H118       33.1673  -52.6099  -53.0956 H         1 UNK         0.0794 
    119 H119       32.1265  -52.5609  -55.3308 H         1 UNK         0.0786 
    120 H120       33.8611  -52.3755  -55.4979 H         1 UNK         0.0786 
    121 H121       32.8044  -50.9714  -55.6632 H         1 UNK         0.0786 
    122 H122       34.6284  -50.2900  -54.0940 H         1 UNK         0.3032 
    123 H123       36.1076  -49.4185  -51.0548 H         1 UNK         0.1094 
    124 H124       37.5156  -50.9267  -53.3278 H         1 UNK         0.0794 
    125 H125       38.2893  -49.8565  -52.1587 H         1 UNK         0.0794 
    126 H126       37.5724  -51.3679  -51.6261 H         1 UNK         0.0794 
    127 H127       36.7052  -48.5933  -53.7206 H         1 UNK         0.3016 
@<TRIPOS>BOND
     1    1    2 1    
     2    1   67 1    
     3    1   68 1    
     4    1   69 1    
     5    2    3 2    
     6    2    4 am   BACKBONE|DICT|INTERRES
     7    4    5 1    
     8    4   70 1    
     9    5    6 1    
    10    5   65 1    
    11    5   71 1    
    12    6    7 1    
    13    6   72 1    
    14    6   73 1    
    15    7    8 1    
    16    8    9 1    
    17    8   74 1    
    18    8   75 1    
    19    9   10 ar   
    20    9   14 ar   
    21   10   11 ar   
    22   10   76 1    
    23   11   12 ar   
    24   11   48 1    
    25   12   13 ar   
    26   12   77 1    
    27   13   14 ar   
    28   13   15 1    
    29   14   78 1    
    30   15   16 1    
    31   15   79 1    
    32   15   80 1    
    33   16   17 1    
    34   17   18 1    
    35   17   81 1    
    36   17   82 1    
    37   18   19 1    
    38   18   22 1    
    39   18   83 1    
    40   19   20 am   BACKBONE|DICT|INTERRES
    41   19   21 2    
    42   20   84 1    
    43   20   85 1    
    44   22   23 am   BACKBONE|DICT|INTERRES
    45   22   86 1    
    46   23   24 2    
    47   23   25 1    
    48   25   26 1    
    49   25   27 1    
    50   25   87 1    
    51   26   88 1    
    52   26   89 1    
    53   26   90 1    
    54   27   28 am   BACKBONE|DICT|INTERRES
    55   27   91 1    
    56   28   29 2    
    57   28   30 1    
    58   30   31 1    
    59   30   32 1    
    60   30   92 1    
    61   31   93 1    
    62   31   94 1    
    63   31   95 1    
    64   32   33 am   BACKBONE|DICT|INTERRES
    65   32   96 1    
    66   33   34 2    
    67   33   35 1    
    68   35   36 1    
    69   35   37 1    
    70   35   97 1    
    71   36   98 1    
    72   36   99 1    
    73   36  100 1    
    74   37   38 am   BACKBONE|DICT|INTERRES
    75   37  101 1    
    76   38   39 2    
    77   38   40 1    
    78   40   41 1    
    79   40   42 1    
    80   40  102 1    
    81   41  103 1    
    82   41  104 1    
    83   41  105 1    
    84   42   43 am   BACKBONE|DICT|INTERRES
    85   42  106 1    
    86   43   44 2    
    87   43   45 1    
    88   45   46 1    
    89   45   49 1    
    90   45  107 1    
    91   46   47 1    
    92   46  108 1    
    93   46  109 1    
    94   47   48 1    
    95   48  110 1    
    96   48  111 1    
    97   49   50 am   BACKBONE|DICT|INTERRES
    98   49  112 1    
    99   50   51 2    
   100   50   52 1    
   101   52   53 1    
   102   52   54 1    
   103   52  113 1    
   104   53  114 1    
   105   53  115 1    
   106   53  116 1    
   107   54   55 am   BACKBONE|DICT|INTERRES
   108   54  117 1    
   109   55   56 2    
   110   55   57 1    
   111   57   58 1    
   112   57   59 1    
   113   57  118 1    
   114   58  119 1    
   115   58  120 1    
   116   58  121 1    
   117   59   60 am   BACKBONE|DICT|INTERRES
   118   59  122 1    
   119   60   61 2    
   120   60   62 1    
   121   62   63 1    
   122   62   64 1    
   123   62  123 1    
   124   63  124 1    
   125   63  125 1    
   126   63  126 1    
   127   64   65 am   BACKBONE|DICT|INTERRES
   128   64  127 1    
   129   65   66 2    
@<TRIPOS>SUBSTRUCTURE
     1 UNK         1 GROUP             0       ****    0 ROOT    
