@<TRIPOS>MOLECULE
3R134
127   129    1
SMALL
USER_CHARGES


@<TRIPOS>ATOM
      1 CA         34.7221  -46.3962  -48.9851 C.3       0 UNK        -0.1968 
      2 C          34.5142  -46.6742  -50.4655 C.2       0 UNK         0.4852 
      3 O          34.0185  -47.7437  -50.8238 O.2       0 UNK        -0.5359 
      4 N          34.8681  -45.7166  -51.3341 N.am      1 UNK        -0.4300 
      5 CA         34.7486  -45.8248  -52.7941 C.3       1 UNK         0.0863 
      6 C6         35.4449  -44.6521  -53.5285 C.3       11 UNK        -0.0953 
      7 S7         34.7786  -42.9997  -53.1156 S.3       11 UNK        -0.2369 
      8 C8         34.4690  -42.2869  -54.7642 C.3       11 UNK         0.0226 
      9 C9         33.3334  -42.9891  -55.4951 C.ar      11 UNK        -0.0699 
     10 C10        33.6078  -43.8863  -56.5316 C.ar      11 UNK        -0.0804 
     11 C11        32.5689  -44.5435  -57.1959 C.ar      11 UNK        -0.0871 
     12 C12        31.2443  -44.2844  -56.8276 C.ar      11 UNK        -0.1008 
     13 C13        30.9571  -43.3943  -55.7889 C.ar      11 UNK        -0.0735 
     14 C14        32.0062  -42.7427  -55.1326 C.ar      11 UNK        -0.0945 
     15 C15        29.5222  -43.1854  -55.3292 C.3       11 UNK         0.0169 
     16 S16        28.5066  -42.3238  -56.5664 S.3       11 UNK        -0.2669 
     17 C17        26.9973  -42.0219  -55.5772 C.3       11 UNK        -0.0850 
     18 CA         25.8064  -42.9665  -55.8969 C.3       10 UNK         0.0855 
     19 C          25.0789  -42.6026  -57.2256 C.2       10 UNK         0.5543 
     20 N          24.7228  -43.5525  -58.0814 N.am      10 UNK        -0.7343 
     21 O          24.8064  -41.4313  -57.4777 O.2       10 UNK        -0.5027 
     22 N          26.1868  -44.3848  -55.7798 N.am      10 UNK        -0.4495 
     23 C          25.4612  -45.3360  -55.1790 C.2       10 UNK         0.4903 
     24 O          24.4134  -45.1123  -54.5700 O.2       10 UNK        -0.4860 
     25 CA         25.9943  -46.7832  -55.2888 C.3       9 UNK         0.0227 
     26 CB         24.9304  -47.8359  -54.9154 C.3       9 UNK        -0.1964 
     27 N          26.5859  -47.1147  -56.5937 N.am      9 UNK        -0.4231 
     28 C          26.0311  -46.9460  -57.8059 C.2       9 UNK         0.5014 
     29 O          24.9255  -46.4407  -57.9993 O.2       9 UNK        -0.5270 
     30 CA         26.8582  -47.4112  -59.0091 C.3       8 UNK         0.0284 
     31 CB         28.1157  -46.5403  -59.1824 C.3       8 UNK        -0.1977 
     32 N          27.2319  -48.8164  -58.8510 N.am      8 UNK        -0.4342 
     33 C          26.5355  -49.8477  -59.3512 C.2       8 UNK         0.5039 
     34 O          25.5361  -49.7194  -60.0599 O.2       8 UNK        -0.5547 
     35 CA         27.0327  -51.2694  -59.0249 C.3       7 UNK         0.0281 
     36 CB         27.8748  -51.8223  -60.1865 C.3       7 UNK        -0.1963 
     37 N          27.8150  -51.3411  -57.7896 N.am      7 UNK        -0.4444 
     38 C          27.3061  -51.2266  -56.5551 C.2       7 UNK         0.5104 
     39 O          26.1018  -51.1420  -56.3160 O.2       7 UNK        -0.5100 
     40 CA         28.3140  -51.1746  -55.3912 C.3       6 UNK         0.0396 
     41 CB         28.4664  -52.5660  -54.7575 C.3       6 UNK        -0.1801 
     42 N          29.6411  -50.6635  -55.7600 N.am      6 UNK        -0.4747 
     43 C          29.8974  -49.4456  -56.2593 C.2       6 UNK         0.5012 
     44 O          29.0084  -48.6307  -56.5212 O.2       6 UNK        -0.5003 
     45 CA         31.3775  -49.0908  -56.5354 C.3       5 UNK         0.0782 
     46 C46        31.5122  -47.6475  -57.0774 C.3       11 UNK        -0.0868 
     47 S47        33.1913  -47.2129  -57.6307 S.3       11 UNK        -0.2515 
     48 C48        32.8843  -45.5445  -58.2993 C.3       11 UNK         0.0199 
     49 N          32.1994  -49.3006  -55.3393 N.am      5 UNK        -0.4607 
     50 C          32.6574  -50.4809  -54.9041 C.2       4 UNK         0.5031 
     51 O          32.4722  -51.5423  -55.5006 O.2       4 UNK        -0.5119 
     52 CA         33.3811  -50.4885  -53.5469 C.3       4 UNK         0.0263 
     53 CB         34.8108  -49.9399  -53.6791 C.3       4 UNK        -0.1967 
     54 N          32.6467  -49.7326  -52.5285 N.am      4 UNK        -0.4237 
     55 C          31.4366  -50.0702  -52.0546 C.2       3 UNK         0.4908 
     56 O          30.8510  -51.1120  -52.3485 O.2       3 UNK        -0.5102 
     57 CA         30.7524  -49.0735  -51.1069 C.3       3 UNK         0.0241 
     58 CB         31.1824  -49.3116  -49.6500 C.3       3 UNK        -0.1971 
     59 N          31.0364  -47.6909  -51.4935 N.am      3 UNK        -0.4139 
     60 C          30.3767  -47.0288  -52.4555 C.2       2 UNK         0.5016 
     61 O          29.3967  -47.4782  -53.0489 O.2       2 UNK        -0.5319 
     62 CA         30.8925  -45.6272  -52.8262 C.3       2 UNK         0.0286 
     63 CB         30.1062  -44.5466  -52.0674 C.3       2 UNK        -0.1963 
     64 N          32.3243  -45.4414  -52.5797 N.am      2 UNK        -0.4790 
     65 C          33.2970  -46.0558  -53.2689 C.2       1 UNK         0.5024 
     66 O          33.0802  -46.8417  -54.1885 O.2       1 UNK        -0.4888 
     67 H67        35.3971  -47.1371  -48.5578 H         1 UNK         0.0892 
     68 H68        35.1473  -45.4080  -48.8111 H         1 UNK         0.0892 
     69 H69        33.7716  -46.4560  -48.4558 H         1 UNK         0.0892 
     70 H70        35.2550  -44.8478  -50.9928 H         1 UNK         0.3107 
     71 H71        35.2958  -46.7286  -53.0699 H         1 UNK         0.0773 
     72 H72        36.5061  -44.6480  -53.2758 H         1 UNK         0.0680 
     73 H73        35.4107  -44.8156  -54.6058 H         1 UNK         0.0680 
     74 H74        35.3888  -42.3213  -55.3502 H         1 UNK         0.0650 
     75 H75        34.2221  -41.2307  -54.6479 H         1 UNK         0.0650 
     76 H76        34.6323  -44.0872  -56.8135 H         1 UNK         0.1397 
     77 H77        30.4347  -44.7932  -57.3323 H         1 UNK         0.1363 
     78 H78        31.7955  -42.0596  -54.3212 H         1 UNK         0.1355 
     79 H79        29.5089  -42.6130  -54.4008 H         1 UNK         0.0707 
     80 H80        29.0698  -44.1518  -55.1034 H         1 UNK         0.0707 
     81 H81        27.2366  -42.1074  -54.5165 H         1 UNK         0.1034 
     82 H82        26.7072  -40.9777  -55.7083 H         1 UNK         0.1034 
     83 H83        25.0576  -42.7556  -55.1314 H         1 UNK         0.0482 
     84 H84        24.2455  -43.2892  -58.9283 H         1 UNK         0.3460 
     85 H85        24.8755  -44.5361  -57.8802 H         1 UNK         0.3460 
     86 H86        27.0164  -44.6542  -56.2869 H         1 UNK         0.2989 
     87 H87        26.8046  -46.8620  -54.5622 H         1 UNK         0.0559 
     88 H88        24.5549  -47.6771  -53.9038 H         1 UNK         0.0848 
     89 H89        25.3429  -48.8441  -54.9495 H         1 UNK         0.0848 
     90 H90        24.0757  -47.8008  -55.5920 H         1 UNK         0.0848 
     91 H91        27.5028  -47.5569  -56.5492 H         1 UNK         0.3144 
     92 H92        26.2481  -47.2896  -59.9070 H         1 UNK         0.0727 
     93 H93        28.7538  -46.5558  -58.2998 H         1 UNK         0.0790 
     94 H94        27.8427  -45.4997  -59.3636 H         1 UNK         0.0790 
     95 H95        28.7121  -46.8707  -60.0330 H         1 UNK         0.0790 
     96 H96        27.9957  -49.0090  -58.2129 H         1 UNK         0.3215 
     97 H97        26.1519  -51.9050  -58.9084 H         1 UNK         0.0863 
     98 H98        28.1737  -52.8548  -60.0048 H         1 UNK         0.0808 
     99 H99        28.7780  -51.2328  -60.3491 H         1 UNK         0.0808 
    100 H100       27.3073  -51.8111  -61.1183 H         1 UNK         0.0808 
    101 H101       28.8159  -51.4349  -57.8820 H         1 UNK         0.3118 
    102 H102       27.9047  -50.4981  -54.6379 H         1 UNK         0.0546 
    103 H103       28.9062  -53.2812  -55.4535 H         1 UNK         0.0828 
    104 H104       27.4984  -52.9634  -54.4487 H         1 UNK         0.0828 
    105 H105       29.0969  -52.5312  -53.8692 H         1 UNK         0.0828 
    106 H106       30.4353  -51.2659  -55.5684 H         1 UNK         0.3005 
    107 H107       31.7212  -49.7714  -57.3174 H         1 UNK         0.1257 
    108 H108       30.8529  -47.4983  -57.9334 H         1 UNK         0.0775 
    109 H109       31.1999  -46.9398  -56.3082 H         1 UNK         0.0775 
    110 H110       33.7670  -45.2187  -58.8516 H         1 UNK         0.0840 
    111 H111       32.0709  -45.5823  -59.0257 H         1 UNK         0.0840 
    112 H112       32.4294  -48.4598  -54.8136 H         1 UNK         0.2987 
    113 H113       33.4454  -51.5246  -53.2079 H         1 UNK         0.0785 
    114 H114       35.3952  -50.5457  -54.3727 H         1 UNK         0.0798 
    115 H115       35.3307  -49.9492  -52.7209 H         1 UNK         0.0798 
    116 H116       34.8207  -48.9173  -54.0560 H         1 UNK         0.0798 
    117 H117       33.0921  -48.8965  -52.1626 H         1 UNK         0.3079 
    118 H118       29.6749  -49.2430  -51.1684 H         1 UNK         0.0794 
    119 H119       30.6787  -48.6237  -48.9708 H         1 UNK         0.0786 
    120 H120       32.2572  -49.1905  -49.5139 H         1 UNK         0.0786 
    121 H121       30.9285  -50.3238  -49.3326 H         1 UNK         0.0786 
    122 H122       31.8652  -47.2698  -51.0943 H         1 UNK         0.3032 
    123 H123       30.7229  -45.5011  -53.8969 H         1 UNK         0.1094 
    124 H124       30.2155  -44.6517  -50.9873 H         1 UNK         0.0794 
    125 H125       30.4397  -43.5456  -52.3404 H         1 UNK         0.0794 
    126 H126       29.0410  -44.6083  -52.2953 H         1 UNK         0.0794 
    127 H127       32.5895  -44.8086  -51.8387 H         1 UNK         0.3016 
@<TRIPOS>BOND
     1    1    2 1    
     2    1   67 1    
     3    1   68 1    
     4    1   69 1    
     5    2    3 2    
     6    2    4 am   BACKBONE|DICT|INTERRES
     7    4    5 1    
     8    4   70 1    
     9    5    6 1    
    10    5   65 1    
    11    5   71 1    
    12    6    7 1    
    13    6   72 1    
    14    6   73 1    
    15    7    8 1    
    16    8    9 1    
    17    8   74 1    
    18    8   75 1    
    19    9   10 ar   
    20    9   14 ar   
    21   10   11 ar   
    22   10   76 1    
    23   11   12 ar   
    24   11   48 1    
    25   12   13 ar   
    26   12   77 1    
    27   13   14 ar   
    28   13   15 1    
    29   14   78 1    
    30   15   16 1    
    31   15   79 1    
    32   15   80 1    
    33   16   17 1    
    34   17   18 1    
    35   17   81 1    
    36   17   82 1    
    37   18   19 1    
    38   18   22 1    
    39   18   83 1    
    40   19   20 am   BACKBONE|DICT|INTERRES
    41   19   21 2    
    42   20   84 1    
    43   20   85 1    
    44   22   23 am   BACKBONE|DICT|INTERRES
    45   22   86 1    
    46   23   24 2    
    47   23   25 1    
    48   25   26 1    
    49   25   27 1    
    50   25   87 1    
    51   26   88 1    
    52   26   89 1    
    53   26   90 1    
    54   27   28 am   BACKBONE|DICT|INTERRES
    55   27   91 1    
    56   28   29 2    
    57   28   30 1    
    58   30   31 1    
    59   30   32 1    
    60   30   92 1    
    61   31   93 1    
    62   31   94 1    
    63   31   95 1    
    64   32   33 am   BACKBONE|DICT|INTERRES
    65   32   96 1    
    66   33   34 2    
    67   33   35 1    
    68   35   36 1    
    69   35   37 1    
    70   35   97 1    
    71   36   98 1    
    72   36   99 1    
    73   36  100 1    
    74   37   38 am   BACKBONE|DICT|INTERRES
    75   37  101 1    
    76   38   39 2    
    77   38   40 1    
    78   40   41 1    
    79   40   42 1    
    80   40  102 1    
    81   41  103 1    
    82   41  104 1    
    83   41  105 1    
    84   42   43 am   BACKBONE|DICT|INTERRES
    85   42  106 1    
    86   43   44 2    
    87   43   45 1    
    88   45   46 1    
    89   45   49 1    
    90   45  107 1    
    91   46   47 1    
    92   46  108 1    
    93   46  109 1    
    94   47   48 1    
    95   48  110 1    
    96   48  111 1    
    97   49   50 am   BACKBONE|DICT|INTERRES
    98   49  112 1    
    99   50   51 2    
   100   50   52 1    
   101   52   53 1    
   102   52   54 1    
   103   52  113 1    
   104   53  114 1    
   105   53  115 1    
   106   53  116 1    
   107   54   55 am   BACKBONE|DICT|INTERRES
   108   54  117 1    
   109   55   56 2    
   110   55   57 1    
   111   57   58 1    
   112   57   59 1    
   113   57  118 1    
   114   58  119 1    
   115   58  120 1    
   116   58  121 1    
   117   59   60 am   BACKBONE|DICT|INTERRES
   118   59  122 1    
   119   60   61 2    
   120   60   62 1    
   121   62   63 1    
   122   62   64 1    
   123   62  123 1    
   124   63  124 1    
   125   63  125 1    
   126   63  126 1    
   127   64   65 am   BACKBONE|DICT|INTERRES
   128   64  127 1    
   129   65   66 2    
@<TRIPOS>SUBSTRUCTURE
     1 UNK         1 GROUP             0       ****    0 ROOT    
