@<TRIPOS>MOLECULE
3R134
127   129    1
SMALL
USER_CHARGES


@<TRIPOS>ATOM
      1 CA         31.5398  -46.2955  -54.8496 C.3       0 UNK        -0.1968 
      2 C          33.0388  -46.0903  -54.7065 C.2       0 UNK         0.4852 
      3 O          33.7644  -46.2231  -55.6941 O.2       0 UNK        -0.5359 
      4 N          33.4976  -45.7836  -53.4838 N.am      1 UNK        -0.4300 
      5 CA         34.8840  -45.5192  -53.0777 C.3       1 UNK         0.0863 
      6 C6         35.4767  -44.2281  -53.7074 C.3       11 UNK        -0.0953 
      7 S7         34.9039  -42.7193  -52.8561 S.3       11 UNK        -0.2369 
      8 C8         33.5846  -42.0886  -53.9534 C.3       11 UNK         0.0226 
      9 C9         32.1777  -42.6304  -53.6860 C.ar      11 UNK        -0.0699 
     10 C10        31.8049  -43.2024  -52.4621 C.ar      11 UNK        -0.0804 
     11 C11        30.5033  -43.6705  -52.2555 C.ar      11 UNK        -0.0871 
     12 C12        29.5535  -43.5403  -53.2730 C.ar      11 UNK        -0.1008 
     13 C13        29.9026  -42.9490  -54.4906 C.ar      11 UNK        -0.0735 
     14 C14        31.2131  -42.5041  -54.6903 C.ar      11 UNK        -0.0945 
     15 C15        28.8649  -42.7524  -55.5846 C.3       11 UNK         0.0169 
     16 S16        29.0959  -43.9407  -56.9441 S.3       11 UNK        -0.2669 
     17 C17        28.6864  -42.9148  -58.3984 C.3       11 UNK        -0.0850 
     18 CA         27.2037  -43.0367  -58.8363 C.3       10 UNK         0.0855 
     19 C          26.8782  -41.9882  -59.9420 C.2       10 UNK         0.5543 
     20 N          26.5950  -42.3854  -61.1768 N.am      10 UNK        -0.7343 
     21 O          26.8828  -40.7904  -59.6694 O.2       10 UNK        -0.5027 
     22 N          26.8521  -44.4272  -59.1724 N.am      10 UNK        -0.4495 
     23 C          25.6048  -44.8954  -59.3134 C.2       10 UNK         0.4903 
     24 O          24.5917  -44.2147  -59.1508 O.2       10 UNK        -0.4860 
     25 CA         25.4566  -46.3727  -59.7182 C.3       9 UNK         0.0227 
     26 CB         25.3033  -46.4955  -61.2433 C.3       9 UNK        -0.1964 
     27 N          26.5732  -47.2131  -59.2736 N.am      9 UNK        -0.4231 
     28 C          26.7563  -47.6136  -58.0086 C.2       9 UNK         0.5014 
     29 O          26.0093  -47.3102  -57.0760 O.2       9 UNK        -0.5270 
     30 CA         27.9954  -48.4866  -57.7440 C.3       8 UNK         0.0284 
     31 CB         29.1437  -47.6419  -57.1725 C.3       8 UNK        -0.1977 
     32 N          27.7050  -49.5786  -56.8160 N.am      8 UNK        -0.4342 
     33 C          26.8833  -50.6055  -57.0722 C.2       8 UNK         0.5039 
     34 O          26.3109  -50.7777  -58.1496 O.2       8 UNK        -0.5547 
     35 CA         26.6747  -51.6212  -55.9412 C.3       7 UNK         0.0281 
     36 CB         27.8290  -52.6367  -55.9157 C.3       7 UNK        -0.1963 
     37 N          26.5689  -50.9603  -54.6383 N.am      7 UNK        -0.4444 
     38 C          25.4153  -50.5525  -54.0899 C.2       7 UNK         0.5104 
     39 O          24.3140  -50.7111  -54.6177 O.2       7 UNK        -0.5100 
     40 CA         25.4842  -49.8788  -52.7059 C.3       6 UNK         0.0396 
     41 CB         25.1595  -50.8983  -51.6021 C.3       6 UNK        -0.1801 
     42 N          26.7856  -49.2698  -52.4241 N.am      6 UNK        -0.4747 
     43 C          27.1933  -48.0857  -52.9045 C.2       6 UNK         0.5012 
     44 O          26.4815  -47.3402  -53.5755 O.2       6 UNK        -0.5003 
     45 CA         28.6451  -47.6646  -52.5894 C.3       5 UNK         0.0782 
     46 C46        28.6678  -46.6943  -51.3824 C.3       11 UNK        -0.0868 
     47 S47        30.3451  -46.1084  -50.9531 S.3       11 UNK        -0.2515 
     48 C48        30.1307  -44.2998  -50.9222 C.3       11 UNK         0.0199 
     49 N          29.5528  -48.8061  -52.3958 N.am      5 UNK        -0.4607 
     50 C          29.8403  -49.7274  -53.3221 C.2       4 UNK         0.5031 
     51 O          29.3030  -49.7747  -54.4311 O.2       4 UNK        -0.5119 
     52 CA         30.8768  -50.7956  -52.9440 C.3       4 UNK         0.0263 
     53 CB         30.2046  -52.1608  -52.7286 C.3       4 UNK        -0.1967 
     54 N          31.8845  -50.8984  -54.0003 N.am      4 UNK        -0.4237 
     55 C          32.8331  -49.9741  -54.1934 C.2       3 UNK         0.4908 
     56 O          33.0367  -49.0456  -53.4082 O.2       3 UNK        -0.5102 
     57 CA         33.6547  -50.0864  -55.4883 C.3       3 UNK         0.0241 
     58 CB         32.7803  -49.7804  -56.7178 C.3       3 UNK        -0.1971 
     59 N          34.7576  -49.1270  -55.4605 N.am      3 UNK        -0.4139 
     60 C          36.0137  -49.3994  -55.0861 C.2       2 UNK         0.5016 
     61 O          36.4354  -50.5339  -54.8566 O.2       2 UNK        -0.5319 
     62 CA         36.9592  -48.1947  -54.9260 C.3       2 UNK         0.0286 
     63 CB         37.7127  -47.9185  -56.2369 C.3       2 UNK        -0.1963 
     64 N          36.2408  -46.9847  -54.5169 N.am      2 UNK        -0.4790 
     65 C          35.7854  -46.7559  -53.2777 C.2       1 UNK         0.5024 
     66 O          36.0472  -47.4762  -52.3131 O.2       1 UNK        -0.4888 
     67 H67        31.3111  -47.3529  -54.9708 H         1 UNK         0.0892 
     68 H68        31.0021  -45.9287  -53.9780 H         1 UNK         0.0892 
     69 H69        31.1704  -45.7585  -55.7221 H         1 UNK         0.0892 
     70 H70        32.8293  -45.7432  -52.7273 H         1 UNK         0.3107 
     71 H71        34.8454  -45.3695  -51.9972 H         1 UNK         0.0773 
     72 H72        36.5650  -44.2242  -53.6202 H         1 UNK         0.0680 
     73 H73        35.2659  -44.1638  -54.7756 H         1 UNK         0.0680 
     74 H74        33.8656  -42.2749  -54.9910 H         1 UNK         0.0650 
     75 H75        33.5484  -41.0046  -53.8388 H         1 UNK         0.0650 
     76 H76        32.5246  -43.2906  -51.6610 H         1 UNK         0.1397 
     77 H77        28.5424  -43.8897  -53.1144 H         1 UNK         0.1363 
     78 H78        31.4785  -42.0466  -55.6338 H         1 UNK         0.1355 
     79 H79        28.9365  -41.7270  -55.9486 H         1 UNK         0.0707 
     80 H80        27.8545  -42.8630  -55.1879 H         1 UNK         0.0707 
     81 H81        28.9483  -41.8758  -58.1904 H         1 UNK         0.1034 
     82 H82        29.3420  -43.2175  -59.2169 H         1 UNK         0.1034 
     83 H83        26.5890  -42.7570  -57.9784 H         1 UNK         0.0482 
     84 H84        26.3837  -41.6967  -61.8817 H         1 UNK         0.3460 
     85 H85        26.5876  -43.3651  -61.4086 H         1 UNK         0.3460 
     86 H86        27.6254  -45.0598  -59.3084 H         1 UNK         0.2989 
     87 H87        24.5405  -46.7488  -59.2573 H         1 UNK         0.0559 
     88 H88        26.1953  -46.1559  -61.7713 H         1 UNK         0.0848 
     89 H89        24.4653  -45.8951  -61.6007 H         1 UNK         0.0848 
     90 H90        25.1086  -47.5261  -61.5409 H         1 UNK         0.0848 
     91 H91        27.2283  -47.5143  -59.9813 H         1 UNK         0.3144 
     92 H92        28.3272  -48.9314  -58.6845 H         1 UNK         0.0727 
     93 H93        29.4398  -46.8583  -57.8706 H         1 UNK         0.0790 
     94 H94        30.0246  -48.2527  -56.9781 H         1 UNK         0.0790 
     95 H95        28.8579  -47.1577  -56.2373 H         1 UNK         0.0790 
     96 H96        28.1666  -49.5403  -55.9108 H         1 UNK         0.3215 
     97 H97        25.7527  -52.1698  -56.1471 H         1 UNK         0.0863 
     98 H98        28.7959  -52.1494  -55.7872 H         1 UNK         0.0808 
     99 H99        27.8721  -53.1953  -56.8516 H         1 UNK         0.0808 
    100 H100       27.7041  -53.3620  -55.1116 H         1 UNK         0.0808 
    101 H101       27.4379  -50.7234  -54.1772 H         1 UNK         0.3118 
    102 H102       24.7196  -49.0992  -52.6801 H         1 UNK         0.0546 
    103 H103       25.8893  -51.7083  -51.5704 H         1 UNK         0.0828 
    104 H104       24.1798  -51.3500  -51.7647 H         1 UNK         0.0828 
    105 H105       25.1366  -50.4266  -50.6196 H         1 UNK         0.0828 
    106 H106       27.4304  -49.8038  -51.8592 H         1 UNK         0.3005 
    107 H107       28.9965  -47.1206  -53.4682 H         1 UNK         0.1257 
    108 H108       28.2511  -47.1780  -50.4966 H         1 UNK         0.0775 
    109 H109       28.0249  -45.8357  -51.5845 H         1 UNK         0.0775 
    110 H110       29.1101  -44.0344  -50.6426 H         1 UNK         0.0840 
    111 H111       30.7649  -43.8925  -50.1331 H         1 UNK         0.0840 
    112 H112       30.0480  -48.8241  -51.5154 H         1 UNK         0.2987 
    113 H113       31.3689  -50.5074  -52.0121 H         1 UNK         0.0785 
    114 H114       29.4452  -52.1047  -51.9476 H         1 UNK         0.0798 
    115 H115       30.9305  -52.9126  -52.4183 H         1 UNK         0.0798 
    116 H116       29.7166  -52.5238  -53.6323 H         1 UNK         0.0798 
    117 H117       31.7421  -51.6142  -54.6979 H         1 UNK         0.3079 
    118 H118       34.0378  -51.1060  -55.5671 H         1 UNK         0.0794 
    119 H119       31.9214  -50.4499  -56.7794 H         1 UNK         0.0786 
    120 H120       33.3473  -49.9003  -57.6412 H         1 UNK         0.0786 
    121 H121       32.3986  -48.7594  -56.6961 H         1 UNK         0.0786 
    122 H122       34.4955  -48.1514  -55.5596 H         1 UNK         0.3032 
    123 H123       37.6905  -48.4481  -54.1548 H         1 UNK         0.1094 
    124 H124       38.2726  -48.7984  -56.5569 H         1 UNK         0.0794 
    125 H125       37.0322  -47.6522  -57.0467 H         1 UNK         0.0794 
    126 H126       38.4290  -47.1052  -56.1184 H         1 UNK         0.0794 
    127 H127       35.8943  -46.3823  -55.2542 H         1 UNK         0.3016 
@<TRIPOS>BOND
     1    1    2 1    
     2    1   67 1    
     3    1   68 1    
     4    1   69 1    
     5    2    3 2    
     6    2    4 am   BACKBONE|DICT|INTERRES
     7    4    5 1    
     8    4   70 1    
     9    5    6 1    
    10    5   65 1    
    11    5   71 1    
    12    6    7 1    
    13    6   72 1    
    14    6   73 1    
    15    7    8 1    
    16    8    9 1    
    17    8   74 1    
    18    8   75 1    
    19    9   10 ar   
    20    9   14 ar   
    21   10   11 ar   
    22   10   76 1    
    23   11   12 ar   
    24   11   48 1    
    25   12   13 ar   
    26   12   77 1    
    27   13   14 ar   
    28   13   15 1    
    29   14   78 1    
    30   15   16 1    
    31   15   79 1    
    32   15   80 1    
    33   16   17 1    
    34   17   18 1    
    35   17   81 1    
    36   17   82 1    
    37   18   19 1    
    38   18   22 1    
    39   18   83 1    
    40   19   20 am   BACKBONE|DICT|INTERRES
    41   19   21 2    
    42   20   84 1    
    43   20   85 1    
    44   22   23 am   BACKBONE|DICT|INTERRES
    45   22   86 1    
    46   23   24 2    
    47   23   25 1    
    48   25   26 1    
    49   25   27 1    
    50   25   87 1    
    51   26   88 1    
    52   26   89 1    
    53   26   90 1    
    54   27   28 am   BACKBONE|DICT|INTERRES
    55   27   91 1    
    56   28   29 2    
    57   28   30 1    
    58   30   31 1    
    59   30   32 1    
    60   30   92 1    
    61   31   93 1    
    62   31   94 1    
    63   31   95 1    
    64   32   33 am   BACKBONE|DICT|INTERRES
    65   32   96 1    
    66   33   34 2    
    67   33   35 1    
    68   35   36 1    
    69   35   37 1    
    70   35   97 1    
    71   36   98 1    
    72   36   99 1    
    73   36  100 1    
    74   37   38 am   BACKBONE|DICT|INTERRES
    75   37  101 1    
    76   38   39 2    
    77   38   40 1    
    78   40   41 1    
    79   40   42 1    
    80   40  102 1    
    81   41  103 1    
    82   41  104 1    
    83   41  105 1    
    84   42   43 am   BACKBONE|DICT|INTERRES
    85   42  106 1    
    86   43   44 2    
    87   43   45 1    
    88   45   46 1    
    89   45   49 1    
    90   45  107 1    
    91   46   47 1    
    92   46  108 1    
    93   46  109 1    
    94   47   48 1    
    95   48  110 1    
    96   48  111 1    
    97   49   50 am   BACKBONE|DICT|INTERRES
    98   49  112 1    
    99   50   51 2    
   100   50   52 1    
   101   52   53 1    
   102   52   54 1    
   103   52  113 1    
   104   53  114 1    
   105   53  115 1    
   106   53  116 1    
   107   54   55 am   BACKBONE|DICT|INTERRES
   108   54  117 1    
   109   55   56 2    
   110   55   57 1    
   111   57   58 1    
   112   57   59 1    
   113   57  118 1    
   114   58  119 1    
   115   58  120 1    
   116   58  121 1    
   117   59   60 am   BACKBONE|DICT|INTERRES
   118   59  122 1    
   119   60   61 2    
   120   60   62 1    
   121   62   63 1    
   122   62   64 1    
   123   62  123 1    
   124   63  124 1    
   125   63  125 1    
   126   63  126 1    
   127   64   65 am   BACKBONE|DICT|INTERRES
   128   64  127 1    
   129   65   66 2    
@<TRIPOS>SUBSTRUCTURE
     1 UNK         1 GROUP             0       ****    0 ROOT    
