@<TRIPOS>MOLECULE
3R134
127   129    1
SMALL
USER_CHARGES


@<TRIPOS>ATOM
      1 CA         34.7927  -47.8046  -50.2966 C.3       0 UNK        -0.1968 
      2 C          34.4401  -47.5244  -51.7491 C.2       0 UNK         0.4852 
      3 O          33.4436  -48.0465  -52.2458 O.2       0 UNK        -0.5359 
      4 N          35.2464  -46.7086  -52.4415 N.am      1 UNK        -0.4300 
      5 CA         35.0831  -46.3614  -53.8570 C.3       1 UNK         0.0863 
      6 C6         33.7628  -45.5807  -54.1264 C.3       11 UNK        -0.0953 
      7 S7         33.8733  -44.5436  -55.6209 S.3       11 UNK        -0.2369 
      8 C8         33.5092  -42.8931  -54.9443 C.3       11 UNK         0.0226 
      9 C9         32.0200  -42.7204  -54.6861 C.ar      11 UNK        -0.0699 
     10 C10        31.4881  -42.8878  -53.4039 C.ar      11 UNK        -0.0804 
     11 C11        30.1150  -42.7412  -53.1798 C.ar      11 UNK        -0.0871 
     12 C12        29.2719  -42.4289  -54.2522 C.ar      11 UNK        -0.1008 
     13 C13        29.7958  -42.2426  -55.5362 C.ar      11 UNK        -0.0735 
     14 C14        31.1710  -42.3843  -55.7423 C.ar      11 UNK        -0.0945 
     15 C15        28.8864  -41.8625  -56.6971 C.3       11 UNK         0.0169 
     16 S16        29.0205  -43.0494  -58.0685 S.3       11 UNK        -0.2669 
     17 C17        27.7186  -42.4481  -59.1974 C.3       11 UNK        -0.0850 
     18 CA         26.3255  -43.0522  -58.8833 C.3       10 UNK         0.0855 
     19 C          25.2709  -42.5735  -59.9172 C.2       10 UNK         0.5543 
     20 N          24.6188  -41.4479  -59.6605 N.am      10 UNK        -0.7343 
     21 O          25.0735  -43.1849  -60.9658 O.2       10 UNK        -0.5027 
     22 N          26.3923  -44.5133  -58.7620 N.am      10 UNK        -0.4495 
     23 C          25.4322  -45.3057  -58.2810 C.2       10 UNK         0.4903 
     24 O          24.3305  -44.9006  -57.9085 O.2       10 UNK        -0.4860 
     25 CA         25.7602  -46.8019  -58.1463 C.3       9 UNK         0.0227 
     26 CB         25.3838  -47.5783  -59.4226 C.3       9 UNK        -0.1964 
     27 N          27.1355  -47.0931  -57.7152 N.am      9 UNK        -0.4231 
     28 C          28.2942  -46.9760  -58.3830 C.2       9 UNK         0.5014 
     29 O          28.3937  -46.4895  -59.5099 O.2       9 UNK        -0.5270 
     30 CA         29.5568  -47.5120  -57.6761 C.3       8 UNK         0.0284 
     31 CB         30.2488  -46.4052  -56.8620 C.3       8 UNK        -0.1977 
     32 N          29.2698  -48.6565  -56.8044 N.am      8 UNK        -0.4342 
     33 C          28.8490  -49.8562  -57.2361 C.2       8 UNK         0.5039 
     34 O          28.7776  -50.1748  -58.4234 O.2       8 UNK        -0.5547 
     35 CA         28.3954  -50.8571  -56.1621 C.3       7 UNK         0.0281 
     36 CB         29.5903  -51.6584  -55.6183 C.3       7 UNK        -0.1963 
     37 N          27.6941  -50.1807  -55.0663 N.am      7 UNK        -0.4444 
     38 C          26.4172  -49.7719  -55.1285 C.2       7 UNK         0.5104 
     39 O          25.6743  -49.9950  -56.0839 O.2       7 UNK        -0.5100 
     40 CA         25.8723  -48.9639  -53.9346 C.3       6 UNK         0.0396 
     41 CB         25.1918  -49.8993  -52.9229 C.3       6 UNK        -0.1801 
     42 N          26.8976  -48.1737  -53.2481 N.am      6 UNK        -0.4747 
     43 C          27.5271  -47.1099  -53.7716 C.2       6 UNK         0.5012 
     44 O          27.2565  -46.6393  -54.8746 O.2       6 UNK        -0.5003 
     45 CA         28.7026  -46.5243  -52.9571 C.3       5 UNK         0.0782 
     46 C46        28.2211  -45.3606  -52.0596 C.3       11 UNK        -0.0868 
     47 S47        29.5960  -44.5804  -51.1474 S.3       11 UNK        -0.2515 
     48 C48        29.5561  -42.8687  -51.7686 C.3       11 UNK         0.0199 
     49 N          29.4110  -47.5663  -52.1965 N.am      5 UNK        -0.4607 
     50 C          30.0497  -48.5967  -52.7609 C.2       4 UNK         0.5031 
     51 O          30.1289  -48.7559  -53.9845 O.2       4 UNK        -0.5119 
     52 CA         30.6158  -49.6669  -51.8204 C.3       4 UNK         0.0263 
     53 CB         29.5002  -50.5779  -51.2768 C.3       4 UNK        -0.1967 
     54 N          31.5563  -50.4491  -52.6056 N.am      4 UNK        -0.4237 
     55 C          32.6153  -51.1331  -52.1615 C.2       3 UNK         0.4908 
     56 O          32.8590  -51.3529  -50.9747 O.2       3 UNK        -0.5102 
     57 CA         33.5877  -51.6108  -53.2475 C.3       3 UNK         0.0241 
     58 CB         33.0516  -52.9232  -53.8630 C.3       3 UNK        -0.1971 
     59 N          33.7469  -50.5308  -54.2328 N.am      3 UNK        -0.4139 
     60 C          34.3089  -50.5757  -55.4483 C.2       2 UNK         0.5016 
     61 O          34.8409  -51.5728  -55.9366 O.2       2 UNK        -0.5319 
     62 CA         34.2632  -49.2765  -56.2759 C.3       2 UNK         0.0286 
     63 CB         33.0181  -49.2693  -57.1788 C.3       2 UNK        -0.1963 
     64 N          34.2612  -48.0585  -55.4604 N.am      2 UNK        -0.4790 
     65 C          35.2971  -47.6193  -54.7319 C.2       1 UNK         0.5024 
     66 O          36.3954  -48.1785  -54.7112 O.2       1 UNK        -0.4888 
     67 H67        35.7278  -47.3280  -50.0034 H         1 UNK         0.0892 
     68 H68        34.0019  -47.4367  -49.6436 H         1 UNK         0.0892 
     69 H69        34.8925  -48.8783  -50.1383 H         1 UNK         0.0892 
     70 H70        36.0719  -46.3324  -51.9963 H         1 UNK         0.3107 
     71 H71        35.9174  -45.6950  -54.0822 H         1 UNK         0.0773 
     72 H72        32.8881  -46.2298  -54.1902 H         1 UNK         0.0680 
     73 H73        33.5611  -44.9304  -53.2753 H         1 UNK         0.0680 
     74 H74        33.8440  -42.1404  -55.6596 H         1 UNK         0.0650 
     75 H75        34.0875  -42.7250  -54.0345 H         1 UNK         0.0650 
     76 H76        32.1403  -43.1295  -52.5760 H         1 UNK         0.1397 
     77 H77        28.2103  -42.3093  -54.0834 H         1 UNK         0.1363 
     78 H78        31.5804  -42.2456  -56.7338 H         1 UNK         0.1355 
     79 H79        27.8467  -41.8129  -56.3702 H         1 UNK         0.0707 
     80 H80        29.1538  -40.8661  -57.0515 H         1 UNK         0.0707 
     81 H81        27.6848  -41.3575  -59.1600 H         1 UNK         0.1034 
     82 H82        28.0205  -42.7049  -60.2148 H         1 UNK         0.1034 
     83 H83        26.0178  -42.6790  -57.9044 H         1 UNK         0.0482 
     84 H84        24.7790  -40.9333  -58.8084 H         1 UNK         0.3460 
     85 H85        23.9419  -41.1112  -60.3276 H         1 UNK         0.3460 
     86 H86        27.2536  -44.9523  -59.0712 H         1 UNK         0.2989 
     87 H87        25.1302  -47.1828  -57.3407 H         1 UNK         0.0559 
     88 H88        24.3275  -47.4457  -59.6595 H         1 UNK         0.0848 
     89 H89        25.5579  -48.6475  -59.2998 H         1 UNK         0.0848 
     90 H90        25.9532  -47.2416  -60.2893 H         1 UNK         0.0848 
     91 H91        27.2119  -47.3542  -56.7374 H         1 UNK         0.3144 
     92 H92        30.2511  -47.8510  -58.4478 H         1 UNK         0.0727 
     93 H93        29.5725  -45.9452  -56.1414 H         1 UNK         0.0790 
     94 H94        30.6057  -45.6105  -57.5179 H         1 UNK         0.0790 
     95 H95        31.1134  -46.7846  -56.3176 H         1 UNK         0.0790 
     96 H96        29.3782  -48.5167  -55.8046 H         1 UNK         0.3215 
     97 H97        27.7054  -51.5627  -56.6308 H         1 UNK         0.0863 
     98 H98        29.2898  -52.3311  -54.8148 H         1 UNK         0.0808 
     99 H99        30.3806  -51.0117  -55.2411 H         1 UNK         0.0808 
    100 H100       30.0307  -52.2711  -56.4059 H         1 UNK         0.0808 
    101 H101       28.2529  -49.9075  -54.2704 H         1 UNK         0.3118 
    102 H102       25.1187  -48.2741  -54.3209 H         1 UNK         0.0546 
    103 H103       25.8981  -50.6050  -52.4837 H         1 UNK         0.0828 
    104 H104       24.4037  -50.4829  -53.4010 H         1 UNK         0.0828 
    105 H105       24.7281  -49.3377  -52.1118 H         1 UNK         0.0828 
    106 H106       27.1765  -48.4876  -52.3299 H         1 UNK         0.3005 
    107 H107       29.4118  -46.1142  -53.6805 H         1 UNK         0.1257 
    108 H108       27.4885  -45.7131  -51.3311 H         1 UNK         0.0775 
    109 H109       27.7118  -44.6044  -52.6602 H         1 UNK         0.0775 
    110 H110       28.5367  -42.4835  -51.7120 H         1 UNK         0.0840 
    111 H111       30.1485  -42.2438  -51.0987 H         1 UNK         0.0840 
    112 H112       29.3973  -47.4754  -51.1907 H         1 UNK         0.2987 
    113 H113       31.1439  -49.1756  -51.0003 H         1 UNK         0.0785 
    114 H114       28.7801  -50.0118  -50.6851 H         1 UNK         0.0798 
    115 H115       29.9072  -51.3545  -50.6290 H         1 UNK         0.0798 
    116 H116       28.9525  -51.0709  -52.0811 H         1 UNK         0.0798 
    117 H117       31.4540  -50.2910  -53.6000 H         1 UNK         0.3079 
    118 H118       34.5577  -51.7962  -52.7830 H         1 UNK         0.0794 
    119 H119       33.8004  -53.4144  -54.4835 H         1 UNK         0.0786 
    120 H120       32.1662  -52.7537  -54.4757 H         1 UNK         0.0786 
    121 H121       32.7780  -53.6378  -53.0853 H         1 UNK         0.0786 
    122 H122       33.4404  -49.6215  -53.9011 H         1 UNK         0.3032 
    123 H123       35.1523  -49.2602  -56.9106 H         1 UNK         0.1094 
    124 H124       32.0971  -49.2790  -56.5947 H         1 UNK         0.0794 
    125 H125       32.9976  -48.3906  -57.8237 H         1 UNK         0.0794 
    126 H126       33.0001  -50.1463  -57.8275 H         1 UNK         0.0794 
    127 H127       33.4011  -47.5302  -55.4281 H         1 UNK         0.3016 
@<TRIPOS>BOND
     1    1    2 1    
     2    1   67 1    
     3    1   68 1    
     4    1   69 1    
     5    2    3 2    
     6    2    4 am   BACKBONE|DICT|INTERRES
     7    4    5 1    
     8    4   70 1    
     9    5    6 1    
    10    5   65 1    
    11    5   71 1    
    12    6    7 1    
    13    6   72 1    
    14    6   73 1    
    15    7    8 1    
    16    8    9 1    
    17    8   74 1    
    18    8   75 1    
    19    9   10 ar   
    20    9   14 ar   
    21   10   11 ar   
    22   10   76 1    
    23   11   12 ar   
    24   11   48 1    
    25   12   13 ar   
    26   12   77 1    
    27   13   14 ar   
    28   13   15 1    
    29   14   78 1    
    30   15   16 1    
    31   15   79 1    
    32   15   80 1    
    33   16   17 1    
    34   17   18 1    
    35   17   81 1    
    36   17   82 1    
    37   18   19 1    
    38   18   22 1    
    39   18   83 1    
    40   19   20 am   BACKBONE|DICT|INTERRES
    41   19   21 2    
    42   20   84 1    
    43   20   85 1    
    44   22   23 am   BACKBONE|DICT|INTERRES
    45   22   86 1    
    46   23   24 2    
    47   23   25 1    
    48   25   26 1    
    49   25   27 1    
    50   25   87 1    
    51   26   88 1    
    52   26   89 1    
    53   26   90 1    
    54   27   28 am   BACKBONE|DICT|INTERRES
    55   27   91 1    
    56   28   29 2    
    57   28   30 1    
    58   30   31 1    
    59   30   32 1    
    60   30   92 1    
    61   31   93 1    
    62   31   94 1    
    63   31   95 1    
    64   32   33 am   BACKBONE|DICT|INTERRES
    65   32   96 1    
    66   33   34 2    
    67   33   35 1    
    68   35   36 1    
    69   35   37 1    
    70   35   97 1    
    71   36   98 1    
    72   36   99 1    
    73   36  100 1    
    74   37   38 am   BACKBONE|DICT|INTERRES
    75   37  101 1    
    76   38   39 2    
    77   38   40 1    
    78   40   41 1    
    79   40   42 1    
    80   40  102 1    
    81   41  103 1    
    82   41  104 1    
    83   41  105 1    
    84   42   43 am   BACKBONE|DICT|INTERRES
    85   42  106 1    
    86   43   44 2    
    87   43   45 1    
    88   45   46 1    
    89   45   49 1    
    90   45  107 1    
    91   46   47 1    
    92   46  108 1    
    93   46  109 1    
    94   47   48 1    
    95   48  110 1    
    96   48  111 1    
    97   49   50 am   BACKBONE|DICT|INTERRES
    98   49  112 1    
    99   50   51 2    
   100   50   52 1    
   101   52   53 1    
   102   52   54 1    
   103   52  113 1    
   104   53  114 1    
   105   53  115 1    
   106   53  116 1    
   107   54   55 am   BACKBONE|DICT|INTERRES
   108   54  117 1    
   109   55   56 2    
   110   55   57 1    
   111   57   58 1    
   112   57   59 1    
   113   57  118 1    
   114   58  119 1    
   115   58  120 1    
   116   58  121 1    
   117   59   60 am   BACKBONE|DICT|INTERRES
   118   59  122 1    
   119   60   61 2    
   120   60   62 1    
   121   62   63 1    
   122   62   64 1    
   123   62  123 1    
   124   63  124 1    
   125   63  125 1    
   126   63  126 1    
   127   64   65 am   BACKBONE|DICT|INTERRES
   128   64  127 1    
   129   65   66 2    
@<TRIPOS>SUBSTRUCTURE
     1 UNK         1 GROUP             0       ****    0 ROOT    
