@<TRIPOS>MOLECULE
3R134
127   129    1
SMALL
USER_CHARGES


@<TRIPOS>ATOM
      1 CA         32.6663  -47.3098  -60.1267 C.3       0 UNK        -0.1968 
      2 C          33.3066  -47.3052  -58.7466 C.2       0 UNK         0.4852 
      3 O          34.5284  -47.1945  -58.6399 O.2       0 UNK        -0.5359 
      4 N          32.4854  -47.4266  -57.6946 N.am      1 UNK        -0.4300 
      5 CA         32.8580  -47.4076  -56.2746 C.3       1 UNK         0.0863 
      6 C6         33.4120  -46.0209  -55.8183 C.3       11 UNK        -0.0953 
      7 S7         32.4582  -45.3344  -54.4251 S.3       11 UNK        -0.2369 
      8 C8         31.4217  -44.1054  -55.2839 C.3       11 UNK         0.0226 
      9 C9         30.1518  -43.7144  -54.5291 C.ar      11 UNK        -0.0699 
     10 C10        30.1052  -43.6311  -53.1316 C.ar      11 UNK        -0.0804 
     11 C11        28.9192  -43.2804  -52.4741 C.ar      11 UNK        -0.0871 
     12 C12        27.7805  -42.9793  -53.2281 C.ar      11 UNK        -0.1008 
     13 C13        27.8197  -43.0279  -54.6239 C.ar      11 UNK        -0.0735 
     14 C14        29.0054  -43.4002  -55.2626 C.ar      11 UNK        -0.0945 
     15 C15        26.5830  -42.6956  -55.4466 C.3       11 UNK         0.0169 
     16 S16        26.8022  -41.1690  -56.4156 S.3       11 UNK        -0.2669 
     17 C17        25.6492  -41.4761  -57.8050 C.3       11 UNK        -0.0850 
     18 CA         26.3566  -41.9051  -59.1224 C.3       10 UNK         0.0855 
     19 C          26.9719  -40.6925  -59.8832 C.2       10 UNK         0.5543 
     20 N          28.2707  -40.6645  -60.1576 N.am      10 UNK        -0.7343 
     21 O          26.2506  -39.7666  -60.2457 O.2       10 UNK        -0.5027 
     22 N          27.2812  -43.0277  -58.8919 N.am      10 UNK        -0.4495 
     23 C          27.6574  -43.9335  -59.8047 C.2       10 UNK         0.4903 
     24 O          27.2287  -43.9741  -60.9571 O.2       10 UNK        -0.4860 
     25 CA         28.6713  -44.9838  -59.3340 C.3       9 UNK         0.0227 
     26 CB         30.0879  -44.3729  -59.2661 C.3       9 UNK        -0.1964 
     27 N          28.2514  -45.5324  -58.0420 N.am      9 UNK        -0.4231 
     28 C          28.7865  -46.5909  -57.4230 C.2       9 UNK         0.5014 
     29 O          29.7449  -47.2280  -57.8668 O.2       9 UNK        -0.5270 
     30 CA         28.1754  -46.9644  -56.0565 C.3       8 UNK         0.0284 
     31 CB         26.6373  -46.8149  -56.0126 C.3       8 UNK        -0.1977 
     32 N          28.5768  -48.2994  -55.6042 N.am      8 UNK        -0.4342 
     33 C          28.2588  -49.4782  -56.1620 C.2       8 UNK         0.5039 
     34 O          27.5496  -49.6168  -57.1598 O.2       8 UNK        -0.5547 
     35 CA         28.8131  -50.7242  -55.4592 C.3       7 UNK         0.0281 
     36 CB         30.2824  -50.9489  -55.8467 C.3       7 UNK        -0.1963 
     37 N          28.6796  -50.6012  -54.0047 N.am      7 UNK        -0.4444 
     38 C          27.5563  -50.8967  -53.3331 C.2       7 UNK         0.5104 
     39 O          26.5801  -51.4506  -53.8398 O.2       7 UNK        -0.5100 
     40 CA         27.4942  -50.4890  -51.8496 C.3       6 UNK         0.0396 
     41 CB         28.0034  -51.6281  -50.9529 C.3       6 UNK        -0.1801 
     42 N          28.2461  -49.2628  -51.5704 N.am      6 UNK        -0.4747 
     43 C          27.8632  -48.0323  -51.9516 C.2       6 UNK         0.5012 
     44 O          26.7793  -47.7963  -52.4839 O.2       6 UNK        -0.5003 
     45 CA         28.8515  -46.8674  -51.7174 C.3       5 UNK         0.0782 
     46 C46        28.3600  -45.9612  -50.5581 C.3       11 UNK        -0.0868 
     47 S47        29.5484  -44.6477  -50.1069 S.3       11 UNK        -0.2515 
     48 C48        28.8669  -43.1834  -50.9527 C.3       11 UNK         0.0199 
     49 N          30.2373  -47.3072  -51.5196 N.am      5 UNK        -0.4607 
     50 C          30.9966  -47.9454  -52.4158 C.2       4 UNK         0.5031 
     51 O          30.5812  -48.3116  -53.5200 O.2       4 UNK        -0.5119 
     52 CA         32.4569  -48.2318  -52.0106 C.3       4 UNK         0.0263 
     53 CB         32.7316  -48.1130  -50.4933 C.3       4 UNK        -0.1967 
     54 N          32.9156  -49.5252  -52.5201 N.am      4 UNK        -0.4237 
     55 C          32.3872  -50.7297  -52.2539 C.2       3 UNK         0.4908 
     56 O          31.4528  -50.9100  -51.4717 O.2       3 UNK        -0.5102 
     57 CA         32.9792  -51.9164  -53.0308 C.3       3 UNK         0.0241 
     58 CB         32.0642  -53.1565  -53.0151 C.3       3 UNK        -0.1971 
     59 N          33.2317  -51.5041  -54.4114 N.am      3 UNK        -0.4139 
     60 C          34.3886  -51.6262  -55.0690 C.2       2 UNK         0.5016 
     61 O          35.3732  -52.2226  -54.6317 O.2       2 UNK        -0.5319 
     62 CA         34.4689  -50.9379  -56.4447 C.3       2 UNK         0.0286 
     63 CB         34.1028  -51.9307  -57.5597 C.3       2 UNK        -0.1963 
     64 N          33.6402  -49.7304  -56.5890 N.am      2 UNK        -0.4790 
     65 C          33.7391  -48.6109  -55.8516 C.2       1 UNK         0.5024 
     66 O          34.4698  -48.5240  -54.8631 O.2       1 UNK        -0.4888 
     67 H67        33.0824  -48.1148  -60.7317 H         1 UNK         0.0892 
     68 H68        31.5863  -47.4495  -60.0735 H         1 UNK         0.0892 
     69 H69        32.8608  -46.3652  -60.6336 H         1 UNK         0.0892 
     70 H70        31.4769  -47.4715  -57.8589 H         1 UNK         0.3107 
     71 H71        31.9098  -47.5846  -55.7652 H         1 UNK         0.0773 
     72 H72        34.4629  -46.0666  -55.5280 H         1 UNK         0.0680 
     73 H73        33.3889  -45.2986  -56.6357 H         1 UNK         0.0680 
     74 H74        31.1488  -44.5159  -56.2572 H         1 UNK         0.0650 
     75 H75        32.0143  -43.2106  -55.4752 H         1 UNK         0.0650 
     76 H76        30.9898  -43.8458  -52.5486 H         1 UNK         0.1397 
     77 H77        26.8642  -42.6945  -52.7290 H         1 UNK         0.1363 
     78 H78        29.0410  -43.4328  -56.3405 H         1 UNK         0.1355 
     79 H79        25.7042  -42.5881  -54.8091 H         1 UNK         0.0707 
     80 H80        26.3741  -43.5268  -56.1171 H         1 UNK         0.0707 
     81 H81        24.9313  -42.2443  -57.5145 H         1 UNK         0.1034 
     82 H82        25.0461  -40.5794  -57.9605 H         1 UNK         0.1034 
     83 H83        25.5712  -42.2738  -59.7854 H         1 UNK         0.0482 
     84 H84        28.8708  -41.4192  -59.8708 H         1 UNK         0.3460 
     85 H85        28.6523  -39.8760  -60.6557 H         1 UNK         0.3460 
     86 H86        27.7403  -43.0090  -57.9953 H         1 UNK         0.2989 
     87 H87        28.6742  -45.7976  -60.0623 H         1 UNK         0.0559 
     88 H88        30.3729  -43.9482  -60.2296 H         1 UNK         0.0848 
     89 H89        30.8409  -45.1189  -59.0168 H         1 UNK         0.0848 
     90 H90        30.1566  -43.5753  -58.5265 H         1 UNK         0.0848 
     91 H91        27.4094  -45.1334  -57.6526 H         1 UNK         0.3144 
     92 H92        28.6010  -46.2725  -55.3291 H         1 UNK         0.0727 
     93 H93        26.3279  -45.7754  -56.0901 H         1 UNK         0.0790 
     94 H94        26.2324  -47.1899  -55.0727 H         1 UNK         0.0790 
     95 H95        26.1515  -47.3624  -56.8209 H         1 UNK         0.0790 
     96 H96        29.2356  -48.3115  -54.8289 H         1 UNK         0.3215 
     97 H97        28.2401  -51.5876  -55.8053 H         1 UNK         0.0863 
     98 H98        30.9229  -50.1541  -55.4670 H         1 UNK         0.0808 
     99 H99        30.3986  -50.9709  -56.9314 H         1 UNK         0.0808 
    100 H100       30.6425  -51.9048  -55.4698 H         1 UNK         0.0808 
    101 H101       29.4138  -50.1037  -53.5153 H         1 UNK         0.3118 
    102 H102       26.4468  -50.3083  -51.5986 H         1 UNK         0.0546 
    103 H103       29.0397  -51.8857  -51.1710 H         1 UNK         0.0828 
    104 H104       27.4093  -52.5312  -51.0990 H         1 UNK         0.0828 
    105 H105       27.9368  -51.3650  -49.8973 H         1 UNK         0.0828 
    106 H106       29.1560  -49.3729  -51.1430 H         1 UNK         0.3005 
    107 H107       28.8406  -46.2724  -52.6336 H         1 UNK         0.1257 
    108 H108       28.1834  -46.5570  -49.6605 H         1 UNK         0.0775 
    109 H109       27.4004  -45.5060  -50.8108 H         1 UNK         0.0775 
    110 H110       27.8456  -43.0210  -50.6047 H         1 UNK         0.0840 
    111 H111       29.4371  -42.3068  -50.6431 H         1 UNK         0.0840 
    112 H112       30.6554  -47.0336  -50.6422 H         1 UNK         0.2987 
    113 H113       33.0659  -47.4809  -52.5140 H         1 UNK         0.0785 
    114 H114       32.5754  -47.0938  -50.1378 H         1 UNK         0.0798 
    115 H115       33.7661  -48.3685  -50.2633 H         1 UNK         0.0798 
    116 H116       32.0923  -48.7743  -49.9070 H         1 UNK         0.0798 
    117 H117       33.6519  -49.4658  -53.2159 H         1 UNK         0.3079 
    118 H118       33.9177  -52.1750  -52.5361 H         1 UNK         0.0794 
    119 H119       31.9413  -53.5351  -51.9996 H         1 UNK         0.0786 
    120 H120       32.4825  -53.9661  -53.6132 H         1 UNK         0.0786 
    121 H121       31.0684  -52.9334  -53.3985 H         1 UNK         0.0786 
    122 H122       32.4946  -50.9800  -54.8595 H         1 UNK         0.3032 
    123 H123       35.5086  -50.6337  -56.5852 H         1 UNK         0.1094 
    124 H124       34.7163  -52.8309  -57.4985 H         1 UNK         0.0794 
    125 H125       33.0595  -52.2430  -57.4969 H         1 UNK         0.0794 
    126 H126       34.2662  -51.4981  -58.5470 H         1 UNK         0.0794 
    127 H127       33.0205  -49.7055  -57.3861 H         1 UNK         0.3016 
@<TRIPOS>BOND
     1    1    2 1    
     2    1   67 1    
     3    1   68 1    
     4    1   69 1    
     5    2    3 2    
     6    2    4 am   BACKBONE|DICT|INTERRES
     7    4    5 1    
     8    4   70 1    
     9    5    6 1    
    10    5   65 1    
    11    5   71 1    
    12    6    7 1    
    13    6   72 1    
    14    6   73 1    
    15    7    8 1    
    16    8    9 1    
    17    8   74 1    
    18    8   75 1    
    19    9   10 ar   
    20    9   14 ar   
    21   10   11 ar   
    22   10   76 1    
    23   11   12 ar   
    24   11   48 1    
    25   12   13 ar   
    26   12   77 1    
    27   13   14 ar   
    28   13   15 1    
    29   14   78 1    
    30   15   16 1    
    31   15   79 1    
    32   15   80 1    
    33   16   17 1    
    34   17   18 1    
    35   17   81 1    
    36   17   82 1    
    37   18   19 1    
    38   18   22 1    
    39   18   83 1    
    40   19   20 am   BACKBONE|DICT|INTERRES
    41   19   21 2    
    42   20   84 1    
    43   20   85 1    
    44   22   23 am   BACKBONE|DICT|INTERRES
    45   22   86 1    
    46   23   24 2    
    47   23   25 1    
    48   25   26 1    
    49   25   27 1    
    50   25   87 1    
    51   26   88 1    
    52   26   89 1    
    53   26   90 1    
    54   27   28 am   BACKBONE|DICT|INTERRES
    55   27   91 1    
    56   28   29 2    
    57   28   30 1    
    58   30   31 1    
    59   30   32 1    
    60   30   92 1    
    61   31   93 1    
    62   31   94 1    
    63   31   95 1    
    64   32   33 am   BACKBONE|DICT|INTERRES
    65   32   96 1    
    66   33   34 2    
    67   33   35 1    
    68   35   36 1    
    69   35   37 1    
    70   35   97 1    
    71   36   98 1    
    72   36   99 1    
    73   36  100 1    
    74   37   38 am   BACKBONE|DICT|INTERRES
    75   37  101 1    
    76   38   39 2    
    77   38   40 1    
    78   40   41 1    
    79   40   42 1    
    80   40  102 1    
    81   41  103 1    
    82   41  104 1    
    83   41  105 1    
    84   42   43 am   BACKBONE|DICT|INTERRES
    85   42  106 1    
    86   43   44 2    
    87   43   45 1    
    88   45   46 1    
    89   45   49 1    
    90   45  107 1    
    91   46   47 1    
    92   46  108 1    
    93   46  109 1    
    94   47   48 1    
    95   48  110 1    
    96   48  111 1    
    97   49   50 am   BACKBONE|DICT|INTERRES
    98   49  112 1    
    99   50   51 2    
   100   50   52 1    
   101   52   53 1    
   102   52   54 1    
   103   52  113 1    
   104   53  114 1    
   105   53  115 1    
   106   53  116 1    
   107   54   55 am   BACKBONE|DICT|INTERRES
   108   54  117 1    
   109   55   56 2    
   110   55   57 1    
   111   57   58 1    
   112   57   59 1    
   113   57  118 1    
   114   58  119 1    
   115   58  120 1    
   116   58  121 1    
   117   59   60 am   BACKBONE|DICT|INTERRES
   118   59  122 1    
   119   60   61 2    
   120   60   62 1    
   121   62   63 1    
   122   62   64 1    
   123   62  123 1    
   124   63  124 1    
   125   63  125 1    
   126   63  126 1    
   127   64   65 am   BACKBONE|DICT|INTERRES
   128   64  127 1    
   129   65   66 2    
@<TRIPOS>SUBSTRUCTURE
     1 UNK         1 GROUP             0       ****    0 ROOT    
