@<TRIPOS>MOLECULE
3R134
127   129    1
SMALL
USER_CHARGES


@<TRIPOS>ATOM
      1 CA         36.9533  -43.6253  -58.9120 C.3       0 UNK        -0.1968 
      2 C          36.0081  -44.6750  -58.3456 C.2       0 UNK         0.4852 
      3 O          35.8994  -45.7660  -58.9084 O.2       0 UNK        -0.5359 
      4 N          35.3200  -44.3498  -57.2441 N.am      1 UNK        -0.4300 
      5 CA         34.4220  -45.2509  -56.5163 C.3       1 UNK         0.0863 
      6 C6         33.3456  -44.4627  -55.7262 C.3       11 UNK        -0.0953 
      7 S7         34.0116  -43.3465  -54.4396 S.3       11 UNK        -0.2369 
      8 C8         33.3458  -44.1104  -52.9161 C.3       11 UNK         0.0226 
      9 C9         31.8210  -44.0919  -52.7648 C.ar      11 UNK        -0.0699 
     10 C10        31.2410  -44.8721  -51.7590 C.ar      11 UNK        -0.0804 
     11 C11        29.8543  -44.8964  -51.5753 C.ar      11 UNK        -0.0871 
     12 C12        29.0348  -44.1489  -52.4263 C.ar      11 UNK        -0.1008 
     13 C13        29.5972  -43.3557  -53.4303 C.ar      11 UNK        -0.0735 
     14 C14        30.9856  -43.3179  -53.5810 C.ar      11 UNK        -0.0945 
     15 C15        28.7153  -42.5264  -54.3515 C.3       11 UNK         0.0169 
     16 S16        28.8402  -43.1103  -56.0685 S.3       11 UNK        -0.2669 
     17 C17        27.5782  -42.0794  -56.8901 C.3       11 UNK        -0.0850 
     18 CA         26.1741  -42.7368  -56.8850 C.3       10 UNK         0.0855 
     19 C          25.1442  -41.8427  -57.6267 C.2       10 UNK         0.5543 
     20 N          24.4930  -40.9304  -56.9185 N.am      10 UNK        -0.7343 
     21 O          24.9654  -41.9367  -58.8398 O.2       10 UNK        -0.5027 
     22 N          26.2256  -44.1073  -57.4077 N.am      10 UNK        -0.4495 
     23 C          25.2505  -45.0153  -57.3273 C.2       10 UNK         0.4903 
     24 O          24.1521  -44.7977  -56.8145 O.2       10 UNK        -0.4860 
     25 CA         25.5524  -46.4223  -57.8711 C.3       9 UNK         0.0227 
     26 CB         25.1453  -46.5513  -59.3514 C.3       9 UNK        -0.1964 
     27 N          26.9271  -46.8914  -57.6415 N.am      9 UNK        -0.4231 
     28 C          28.0787  -46.4964  -58.2069 C.2       9 UNK         0.5014 
     29 O          28.1709  -45.5581  -58.9991 O.2       9 UNK        -0.5270 
     30 CA         29.3447  -47.2938  -57.8317 C.3       8 UNK         0.0284 
     31 CB         30.0503  -46.6658  -56.6178 C.3       8 UNK        -0.1977 
     32 N          29.0654  -48.7096  -57.5640 N.am      8 UNK        -0.4342 
     33 C          28.6261  -49.5860  -58.4815 C.2       8 UNK         0.5039 
     34 O          28.5145  -49.3281  -59.6806 O.2       8 UNK        -0.5547 
     35 CA         28.2085  -50.9740  -57.9727 C.3       7 UNK         0.0281 
     36 CB         29.4177  -51.9211  -57.9034 C.3       7 UNK        -0.1963 
     37 N          27.5600  -50.8862  -56.6617 N.am      7 UNK        -0.4444 
     38 C          26.2719  -50.5582  -56.4805 C.2       7 UNK         0.5104 
     39 O          25.4766  -50.3761  -57.4021 O.2       7 UNK        -0.5100 
     40 CA         25.7815  -50.3898  -55.0296 C.3       6 UNK         0.0396 
     41 CB         25.2000  -51.7118  -54.5047 C.3       6 UNK        -0.1801 
     42 N          26.8215  -49.9198  -54.1105 N.am      6 UNK        -0.4747 
     43 C          27.3823  -48.7012  -54.1461 C.2       6 UNK         0.5012 
     44 O          27.0438  -47.8225  -54.9369 O.2       6 UNK        -0.5003 
     45 CA         28.5543  -48.4434  -53.1753 C.3       5 UNK         0.0782 
     46 C46        28.0352  -47.8208  -51.8569 C.3       11 UNK        -0.0868 
     47 S47        29.3741  -47.4857  -50.6620 S.3       11 UNK        -0.2515 
     48 C48        29.2518  -45.6866  -50.4217 C.3       11 UNK         0.0199 
     49 N          29.3706  -49.6431  -52.9409 N.am      5 UNK        -0.4607 
     50 C          30.0118  -50.3463  -53.8818 C.2       4 UNK         0.5031 
     51 O          29.9357  -50.0926  -55.0856 O.2       4 UNK        -0.5119 
     52 CA         30.8849  -51.5139  -53.3857 C.3       4 UNK         0.0263 
     53 CB         31.3408  -52.4360  -54.5315 C.3       4 UNK        -0.1967 
     54 N          32.0635  -50.9973  -52.6929 N.am      4 UNK        -0.4237 
     55 C          32.0752  -50.5032  -51.4469 C.2       3 UNK         0.4908 
     56 O          31.1189  -50.5933  -50.6758 O.2       3 UNK        -0.5102 
     57 CA         33.3481  -49.7640  -50.9860 C.3       3 UNK         0.0241 
     58 CB         34.1458  -50.6314  -49.9983 C.3       3 UNK        -0.1971 
     59 N          34.2350  -49.3384  -52.0781 N.am      3 UNK        -0.4139 
     60 C          33.9146  -48.4550  -53.0345 C.2       2 UNK         0.5016 
     61 O          32.8280  -47.8747  -53.0986 O.2       2 UNK        -0.5319 
     62 CA         34.9715  -48.2139  -54.1209 C.3       2 UNK         0.0286 
     63 CB         35.2766  -49.4997  -54.9141 C.3       2 UNK        -0.1963 
     64 N          34.4706  -47.1978  -55.0410 N.am      2 UNK        -0.4790 
     65 C          35.2027  -46.2495  -55.6314 C.2       1 UNK         0.5024 
     66 O          36.4241  -46.1448  -55.4853 O.2       1 UNK        -0.4888 
     67 H67        36.6725  -43.3803  -59.9360 H         1 UNK         0.0892 
     68 H68        36.9390  -42.7054  -58.3275 H         1 UNK         0.0892 
     69 H69        37.9744  -44.0057  -58.9198 H         1 UNK         0.0892 
     70 H70        35.4747  -43.4538  -56.8039 H         1 UNK         0.3107 
     71 H71        33.8912  -45.8536  -57.2570 H         1 UNK         0.0773 
     72 H72        32.6211  -45.1475  -55.2825 H         1 UNK         0.0680 
     73 H73        32.7649  -43.8523  -56.4197 H         1 UNK         0.0680 
     74 H74        33.7813  -43.5934  -52.0603 H         1 UNK         0.0650 
     75 H75        33.7005  -45.1410  -52.8673 H         1 UNK         0.0650 
     76 H76        31.8728  -45.4634  -51.1096 H         1 UNK         0.1397 
     77 H77        27.9616  -44.1682  -52.2945 H         1 UNK         0.1363 
     78 H78        31.3992  -42.6903  -54.3567 H         1 UNK         0.1355 
     79 H79        27.6733  -42.5709  -54.0310 H         1 UNK         0.0707 
     80 H80        29.0171  -41.4793  -54.2989 H         1 UNK         0.0707 
     81 H81        27.5481  -41.0981  -56.4124 H         1 UNK         0.1034 
     82 H82        27.9092  -41.9043  -57.9157 H         1 UNK         0.1034 
     83 H83        25.8510  -42.8169  -55.8450 H         1 UNK         0.0482 
     84 H84        23.8321  -40.3285  -57.3848 H         1 UNK         0.3460 
     85 H85        24.6380  -40.8382  -55.9250 H         1 UNK         0.3460 
     86 H86        27.0794  -44.3762  -57.8857 H         1 UNK         0.2989 
     87 H87        24.9251  -47.1115  -57.3032 H         1 UNK         0.0559 
     88 H88        24.0887  -46.3156  -59.4848 H         1 UNK         0.0848 
     89 H89        25.3007  -47.5665  -59.7169 H         1 UNK         0.0848 
     90 H90        25.7099  -45.8728  -59.9914 H         1 UNK         0.0848 
     91 H91        27.0097  -47.5632  -56.8841 H         1 UNK         0.3144 
     92 H92        30.0282  -47.2493  -58.6821 H         1 UNK         0.0727 
     93 H93        29.3822  -46.5767  -55.7613 H         1 UNK         0.0790 
     94 H94        30.4016  -45.6608  -56.8547 H         1 UNK         0.0790 
     95 H95        30.9185  -47.2489  -56.3099 H         1 UNK         0.0790 
     96 H96        29.2100  -49.0424  -56.6152 H         1 UNK         0.3215 
     97 H97        27.4976  -51.3931  -58.6887 H         1 UNK         0.0863 
     98 H98        29.1329  -52.9044  -57.5289 H         1 UNK         0.0808 
     99 H99        30.2076  -51.5313  -57.2617 H         1 UNK         0.0808 
    100 H100       29.8511  -52.0650  -58.8940 H         1 UNK         0.0808 
    101 H101       28.1665  -50.9517  -55.8538 H         1 UNK         0.3118 
    102 H102       24.9814  -49.6464  -55.0378 H         1 UNK         0.0546 
    103 H103       25.9566  -52.4957  -54.4530 H         1 UNK         0.0828 
    104 H104       24.4024  -52.0722  -55.1560 H         1 UNK         0.0828 
    105 H105       24.7717  -51.5905  -53.5096 H         1 UNK         0.0828 
    106 H106       27.1627  -50.5808  -53.4271 H         1 UNK         0.3005 
    107 H107       29.2084  -47.7110  -53.6535 H         1 UNK         0.1257 
    108 H108       27.3189  -48.4878  -51.3733 H         1 UNK         0.0775 
    109 H109       27.4954  -46.8947  -52.0641 H         1 UNK         0.0775 
    110 H110       28.2100  -45.4091  -50.2536 H         1 UNK         0.0840 
    111 H111       29.7813  -45.4248  -49.5045 H         1 UNK         0.0840 
    112 H112       29.5551  -49.8718  -51.9704 H         1 UNK         0.2987 
    113 H113       30.2889  -52.1093  -52.6907 H         1 UNK         0.0785 
    114 H114       30.4825  -52.8571  -55.0565 H         1 UNK         0.0798 
    115 H115       31.9304  -53.2725  -54.1561 H         1 UNK         0.0798 
    116 H116       31.9453  -51.9032  -55.2669 H         1 UNK         0.0798 
    117 H117       32.8879  -50.8600  -53.2575 H         1 UNK         0.3079 
    118 H118       33.0170  -48.8642  -50.4628 H         1 UNK         0.0794 
    119 H119       34.9963  -50.0869  -49.5875 H         1 UNK         0.0786 
    120 H120       34.5225  -51.5395  -50.4710 H         1 UNK         0.0786 
    121 H121       33.5236  -50.9371  -49.1558 H         1 UNK         0.0786 
    122 H122       35.1502  -49.7655  -52.1006 H         1 UNK         0.3032 
    123 H123       35.8793  -47.8583  -53.6275 H         1 UNK         0.1094 
    124 H124       34.3788  -49.9085  -55.3797 H         1 UNK         0.0794 
    125 H125       36.0026  -49.3104  -55.7053 H         1 UNK         0.0794 
    126 H126       35.6997  -50.2758  -54.2756 H         1 UNK         0.0794 
    127 H127       33.4605  -47.1669  -55.1045 H         1 UNK         0.3016 
@<TRIPOS>BOND
     1    1    2 1    
     2    1   67 1    
     3    1   68 1    
     4    1   69 1    
     5    2    3 2    
     6    2    4 am   BACKBONE|DICT|INTERRES
     7    4    5 1    
     8    4   70 1    
     9    5    6 1    
    10    5   65 1    
    11    5   71 1    
    12    6    7 1    
    13    6   72 1    
    14    6   73 1    
    15    7    8 1    
    16    8    9 1    
    17    8   74 1    
    18    8   75 1    
    19    9   10 ar   
    20    9   14 ar   
    21   10   11 ar   
    22   10   76 1    
    23   11   12 ar   
    24   11   48 1    
    25   12   13 ar   
    26   12   77 1    
    27   13   14 ar   
    28   13   15 1    
    29   14   78 1    
    30   15   16 1    
    31   15   79 1    
    32   15   80 1    
    33   16   17 1    
    34   17   18 1    
    35   17   81 1    
    36   17   82 1    
    37   18   19 1    
    38   18   22 1    
    39   18   83 1    
    40   19   20 am   BACKBONE|DICT|INTERRES
    41   19   21 2    
    42   20   84 1    
    43   20   85 1    
    44   22   23 am   BACKBONE|DICT|INTERRES
    45   22   86 1    
    46   23   24 2    
    47   23   25 1    
    48   25   26 1    
    49   25   27 1    
    50   25   87 1    
    51   26   88 1    
    52   26   89 1    
    53   26   90 1    
    54   27   28 am   BACKBONE|DICT|INTERRES
    55   27   91 1    
    56   28   29 2    
    57   28   30 1    
    58   30   31 1    
    59   30   32 1    
    60   30   92 1    
    61   31   93 1    
    62   31   94 1    
    63   31   95 1    
    64   32   33 am   BACKBONE|DICT|INTERRES
    65   32   96 1    
    66   33   34 2    
    67   33   35 1    
    68   35   36 1    
    69   35   37 1    
    70   35   97 1    
    71   36   98 1    
    72   36   99 1    
    73   36  100 1    
    74   37   38 am   BACKBONE|DICT|INTERRES
    75   37  101 1    
    76   38   39 2    
    77   38   40 1    
    78   40   41 1    
    79   40   42 1    
    80   40  102 1    
    81   41  103 1    
    82   41  104 1    
    83   41  105 1    
    84   42   43 am   BACKBONE|DICT|INTERRES
    85   42  106 1    
    86   43   44 2    
    87   43   45 1    
    88   45   46 1    
    89   45   49 1    
    90   45  107 1    
    91   46   47 1    
    92   46  108 1    
    93   46  109 1    
    94   47   48 1    
    95   48  110 1    
    96   48  111 1    
    97   49   50 am   BACKBONE|DICT|INTERRES
    98   49  112 1    
    99   50   51 2    
   100   50   52 1    
   101   52   53 1    
   102   52   54 1    
   103   52  113 1    
   104   53  114 1    
   105   53  115 1    
   106   53  116 1    
   107   54   55 am   BACKBONE|DICT|INTERRES
   108   54  117 1    
   109   55   56 2    
   110   55   57 1    
   111   57   58 1    
   112   57   59 1    
   113   57  118 1    
   114   58  119 1    
   115   58  120 1    
   116   58  121 1    
   117   59   60 am   BACKBONE|DICT|INTERRES
   118   59  122 1    
   119   60   61 2    
   120   60   62 1    
   121   62   63 1    
   122   62   64 1    
   123   62  123 1    
   124   63  124 1    
   125   63  125 1    
   126   63  126 1    
   127   64   65 am   BACKBONE|DICT|INTERRES
   128   64  127 1    
   129   65   66 2    
@<TRIPOS>SUBSTRUCTURE
     1 UNK         1 GROUP             0       ****    0 ROOT    
