@<TRIPOS>MOLECULE
3R134
127   129    1
SMALL
USER_CHARGES


@<TRIPOS>ATOM
      1 CA         35.4825  -46.4635  -49.3803 C.3       0 UNK        -0.1968 
      2 C          35.0625  -46.7518  -50.8129 C.2       0 UNK         0.4852 
      3 O          34.5415  -47.8331  -51.0924 O.2       0 UNK        -0.5359 
      4 N          35.2639  -45.7911  -51.7259 N.am      1 UNK        -0.4300 
      5 CA         34.9302  -45.9054  -53.1520 C.3       1 UNK         0.0863 
      6 C6         35.4678  -44.7083  -53.9751 C.3       11 UNK        -0.0953 
      7 S7         34.7818  -43.0824  -53.4921 S.3       11 UNK        -0.2369 
      8 C8         34.1862  -42.4247  -55.0844 C.3       11 UNK         0.0226 
      9 C9         32.9815  -43.1909  -55.6124 C.ar      11 UNK        -0.0699 
     10 C10        33.1468  -44.1743  -56.5915 C.ar      11 UNK        -0.0804 
     11 C11        32.0518  -44.9068  -57.0576 C.ar      11 UNK        -0.0871 
     12 C12        30.7765  -44.6133  -56.5692 C.ar      11 UNK        -0.1008 
     13 C13        30.5881  -43.6123  -55.6095 C.ar      11 UNK        -0.0735 
     14 C14        31.6995  -42.9103  -55.1304 C.ar      11 UNK        -0.0945 
     15 C15        29.1923  -43.2519  -55.1097 C.3       11 UNK         0.0169 
     16 S16        28.1435  -44.7026  -54.7603 S.3       11 UNK        -0.2669 
     17 C17        26.6462  -43.8888  -54.0988 C.3       11 UNK        -0.0850 
     18 CA         25.4727  -43.7953  -55.1110 C.3       10 UNK         0.0855 
     19 C          25.6986  -42.6990  -56.1959 C.2       10 UNK         0.5543 
     20 N          25.6168  -42.9971  -57.4879 N.am      10 UNK        -0.7343 
     21 O          25.9413  -41.5443  -55.8541 O.2       10 UNK        -0.5027 
     22 N          25.1150  -45.1205  -55.6331 N.am      10 UNK        -0.4495 
     23 C          23.9165  -45.4668  -56.1154 C.2       10 UNK         0.4903 
     24 O          22.9259  -44.7346  -56.0847 O.2       10 UNK        -0.4860 
     25 CA         23.8303  -46.8680  -56.7500 C.3       9 UNK         0.0227 
     26 CB         22.5543  -47.0713  -57.5943 C.3       9 UNK        -0.1964 
     27 N          25.0295  -47.2166  -57.5247 N.am      9 UNK        -0.4231 
     28 C          25.5221  -46.5718  -58.5972 C.2       9 UNK         0.5014 
     29 O          25.0237  -45.5443  -59.0591 O.2       9 UNK        -0.5270 
     30 CA         26.8046  -47.1249  -59.2558 C.3       8 UNK         0.0284 
     31 CB         27.9770  -46.1670  -58.9948 C.3       8 UNK        -0.1977 
     32 N          27.1848  -48.4632  -58.7965 N.am      8 UNK        -0.4342 
     33 C          26.4982  -49.5899  -59.0419 C.2       8 UNK         0.5039 
     34 O          25.5428  -49.6480  -59.8165 O.2       8 UNK        -0.5547 
     35 CA         26.9076  -50.8583  -58.2636 C.3       7 UNK         0.0281 
     36 CB         27.6899  -51.8173  -59.1758 C.3       7 UNK        -0.1963 
     37 N          27.6977  -50.6006  -57.0536 N.am      7 UNK        -0.4444 
     38 C          27.3332  -49.8342  -56.0141 C.2       7 UNK         0.5104 
     39 O          26.2217  -49.3148  -55.9096 O.2       7 UNK        -0.5100 
     40 CA         28.4017  -49.5469  -54.9416 C.3       6 UNK         0.0396 
     41 CB         28.1405  -50.4208  -53.7051 C.3       6 UNK        -0.1801 
     42 N          29.7926  -49.7343  -55.3832 N.am      6 UNK        -0.4747 
     43 C          30.3864  -49.1273  -56.4256 C.2       6 UNK         0.5012 
     44 O          29.8161  -48.3075  -57.1479 O.2       6 UNK        -0.5003 
     45 CA         31.8216  -49.5911  -56.7373 C.3       5 UNK         0.0782 
     46 C46        32.5300  -48.8520  -57.9101 C.3       11 UNK        -0.0868 
     47 S47        33.3781  -47.2984  -57.4659 S.3       11 UNK        -0.2515 
     48 C48        32.2456  -46.0129  -58.0863 C.3       11 UNK         0.0199 
     49 N          32.6085  -49.6438  -55.5011 N.am      5 UNK        -0.4607 
     50 C          33.2818  -50.7142  -55.0653 C.2       4 UNK         0.5031 
     51 O          33.3510  -51.7776  -55.6824 O.2       4 UNK        -0.5119 
     52 CA         33.9785  -50.5979  -53.6977 C.3       4 UNK         0.0263 
     53 CB         35.3608  -49.9462  -53.8574 C.3       4 UNK        -0.1967 
     54 N          33.2038  -49.8686  -52.6870 N.am      4 UNK        -0.4237 
     55 C          31.9942  -50.2283  -52.2281 C.2       3 UNK         0.4908 
     56 O          31.3711  -51.2101  -52.6328 O.2       3 UNK        -0.5102 
     57 CA         31.3660  -49.3396  -51.1433 C.3       3 UNK         0.0241 
     58 CB         31.9615  -49.6524  -49.7603 C.3       3 UNK        -0.1971 
     59 N          31.5580  -47.9253  -51.4637 N.am      3 UNK        -0.4139 
     60 C          30.6715  -47.1790  -52.1389 C.2       2 UNK         0.5016 
     61 O          29.5318  -47.5555  -52.4071 O.2       2 UNK        -0.5319 
     62 CA         31.1128  -45.7759  -52.5989 C.3       2 UNK         0.0286 
     63 CB         30.4465  -44.6855  -51.7447 C.3       2 UNK        -0.1963 
     64 N          32.5620  -45.5651  -52.5935 N.am      2 UNK        -0.4790 
     65 C          33.4318  -46.1927  -53.3982 C.2       1 UNK         0.5024 
     66 O          33.1000  -47.0394  -54.2260 O.2       1 UNK        -0.4888 
     67 H67        36.2254  -47.1914  -49.0558 H         1 UNK         0.0892 
     68 H68        35.9123  -45.4678  -49.2734 H         1 UNK         0.0892 
     69 H69        34.6216  -46.5360  -48.7163 H         1 UNK         0.0892 
     70 H70        35.6790  -44.9134  -51.4456 H         1 UNK         0.3107 
     71 H71        35.4654  -46.7862  -53.5098 H         1 UNK         0.0773 
     72 H72        35.3078  -44.8884  -55.0374 H         1 UNK         0.0680 
     73 H73        36.5512  -44.6508  -53.8603 H         1 UNK         0.0680 
     74 H74        33.9183  -41.3757  -54.9509 H         1 UNK         0.0650 
     75 H75        35.0016  -42.4394  -55.8093 H         1 UNK         0.0650 
     76 H76        34.1328  -44.3922  -56.9777 H         1 UNK         0.1397 
     77 H77        29.9273  -45.1696  -56.9346 H         1 UNK         0.1363 
     78 H78        31.5702  -42.1394  -54.3832 H         1 UNK         0.1355 
     79 H79        29.2632  -42.6502  -54.2022 H         1 UNK         0.0707 
     80 H80        28.7060  -42.6296  -55.8617 H         1 UNK         0.0707 
     81 H81        26.3214  -44.4681  -53.2332 H         1 UNK         0.1034 
     82 H82        26.8965  -42.9039  -53.7000 H         1 UNK         0.1034 
     83 H83        24.6116  -43.4404  -54.5414 H         1 UNK         0.0482 
     84 H84        25.3855  -43.9320  -57.8012 H         1 UNK         0.3460 
     85 H85        25.7609  -42.2671  -58.1667 H         1 UNK         0.3460 
     86 H86        25.8794  -45.7757  -55.7106 H         1 UNK         0.2989 
     87 H87        23.7914  -47.5749  -55.9199 H         1 UNK         0.0559 
     88 H88        22.4949  -46.3582  -58.4172 H         1 UNK         0.0848 
     89 H89        21.6580  -46.9410  -56.9866 H         1 UNK         0.0848 
     90 H90        22.5148  -48.0751  -58.0172 H         1 UNK         0.0848 
     91 H91        25.5367  -48.0258  -57.1748 H         1 UNK         0.3144 
     92 H92        26.6269  -47.1727  -60.3320 H         1 UNK         0.0727 
     93 H93        28.1646  -46.0667  -57.9260 H         1 UNK         0.0790 
     94 H94        27.7677  -45.1698  -59.3847 H         1 UNK         0.0790 
     95 H95        28.8946  -46.5163  -59.4685 H         1 UNK         0.0790 
     96 H96        27.9847  -48.5103  -58.1726 H         1 UNK         0.3215 
     97 H97        25.9856  -51.3529  -57.9510 H         1 UNK         0.0863 
     98 H98        27.9046  -52.7602  -58.6724 H         1 UNK         0.0808 
     99 H99        28.6368  -51.3837  -59.5001 H         1 UNK         0.0808 
    100 H100       27.1173  -52.0563  -60.0733 H         1 UNK         0.0808 
    101 H101       28.6291  -50.9880  -57.0351 H         1 UNK         0.3118 
    102 H102       28.2916  -48.4993  -54.6550 H         1 UNK         0.0546 
    103 H103       28.7992  -50.1491  -52.8821 H         1 UNK         0.0828 
    104 H104       28.2884  -51.4800  -53.9181 H         1 UNK         0.0828 
    105 H105       27.1175  -50.2975  -53.3467 H         1 UNK         0.0828 
    106 H106       30.3463  -50.3808  -54.8361 H         1 UNK         0.3005 
    107 H107       31.6693  -50.6124  -57.0942 H         1 UNK         0.1257 
    108 H108       33.3041  -49.5107  -58.3063 H         1 UNK         0.0775 
    109 H109       31.8513  -48.6876  -58.7488 H         1 UNK         0.0775 
    110 H110       32.6544  -45.5881  -59.0038 H         1 UNK         0.0840 
    111 H111       31.2853  -46.4544  -58.3536 H         1 UNK         0.0840 
    112 H112       32.6467  -48.7792  -54.9650 H         1 UNK         0.2987 
    113 H113       34.1240  -51.6108  -53.3168 H         1 UNK         0.0785 
    114 H114       35.2851  -48.9529  -54.2992 H         1 UNK         0.0798 
    115 H115       35.9973  -50.5427  -54.5121 H         1 UNK         0.0798 
    116 H116       35.8742  -49.8533  -52.9001 H         1 UNK         0.0798 
    117 H117       33.6632  -49.0701  -52.2564 H         1 UNK         0.3079 
    118 H118       30.2993  -49.5672  -51.0973 H         1 UNK         0.0794 
    119 H119       33.0382  -49.4860  -49.7267 H         1 UNK         0.0786 
    120 H120       31.7868  -50.6949  -49.4911 H         1 UNK         0.0786 
    121 H121       31.5041  -49.0371  -48.9854 H         1 UNK         0.0786 
    122 H122       32.4847  -47.5492  -51.3006 H         1 UNK         0.3032 
    123 H123       30.7705  -45.6668  -53.6300 H         1 UNK         0.1094 
    124 H124       30.6791  -43.6899  -52.1228 H         1 UNK         0.0794 
    125 H125       29.3605  -44.7887  -51.7613 H         1 UNK         0.0794 
    126 H126       30.7648  -44.7365  -50.7029 H         1 UNK         0.0794 
    127 H127       32.9255  -44.8911  -51.9353 H         1 UNK         0.3016 
@<TRIPOS>BOND
     1    1    2 1    
     2    1   67 1    
     3    1   68 1    
     4    1   69 1    
     5    2    3 2    
     6    2    4 am   BACKBONE|DICT|INTERRES
     7    4    5 1    
     8    4   70 1    
     9    5    6 1    
    10    5   65 1    
    11    5   71 1    
    12    6    7 1    
    13    6   72 1    
    14    6   73 1    
    15    7    8 1    
    16    8    9 1    
    17    8   74 1    
    18    8   75 1    
    19    9   10 ar   
    20    9   14 ar   
    21   10   11 ar   
    22   10   76 1    
    23   11   12 ar   
    24   11   48 1    
    25   12   13 ar   
    26   12   77 1    
    27   13   14 ar   
    28   13   15 1    
    29   14   78 1    
    30   15   16 1    
    31   15   79 1    
    32   15   80 1    
    33   16   17 1    
    34   17   18 1    
    35   17   81 1    
    36   17   82 1    
    37   18   19 1    
    38   18   22 1    
    39   18   83 1    
    40   19   20 am   BACKBONE|DICT|INTERRES
    41   19   21 2    
    42   20   84 1    
    43   20   85 1    
    44   22   23 am   BACKBONE|DICT|INTERRES
    45   22   86 1    
    46   23   24 2    
    47   23   25 1    
    48   25   26 1    
    49   25   27 1    
    50   25   87 1    
    51   26   88 1    
    52   26   89 1    
    53   26   90 1    
    54   27   28 am   BACKBONE|DICT|INTERRES
    55   27   91 1    
    56   28   29 2    
    57   28   30 1    
    58   30   31 1    
    59   30   32 1    
    60   30   92 1    
    61   31   93 1    
    62   31   94 1    
    63   31   95 1    
    64   32   33 am   BACKBONE|DICT|INTERRES
    65   32   96 1    
    66   33   34 2    
    67   33   35 1    
    68   35   36 1    
    69   35   37 1    
    70   35   97 1    
    71   36   98 1    
    72   36   99 1    
    73   36  100 1    
    74   37   38 am   BACKBONE|DICT|INTERRES
    75   37  101 1    
    76   38   39 2    
    77   38   40 1    
    78   40   41 1    
    79   40   42 1    
    80   40  102 1    
    81   41  103 1    
    82   41  104 1    
    83   41  105 1    
    84   42   43 am   BACKBONE|DICT|INTERRES
    85   42  106 1    
    86   43   44 2    
    87   43   45 1    
    88   45   46 1    
    89   45   49 1    
    90   45  107 1    
    91   46   47 1    
    92   46  108 1    
    93   46  109 1    
    94   47   48 1    
    95   48  110 1    
    96   48  111 1    
    97   49   50 am   BACKBONE|DICT|INTERRES
    98   49  112 1    
    99   50   51 2    
   100   50   52 1    
   101   52   53 1    
   102   52   54 1    
   103   52  113 1    
   104   53  114 1    
   105   53  115 1    
   106   53  116 1    
   107   54   55 am   BACKBONE|DICT|INTERRES
   108   54  117 1    
   109   55   56 2    
   110   55   57 1    
   111   57   58 1    
   112   57   59 1    
   113   57  118 1    
   114   58  119 1    
   115   58  120 1    
   116   58  121 1    
   117   59   60 am   BACKBONE|DICT|INTERRES
   118   59  122 1    
   119   60   61 2    
   120   60   62 1    
   121   62   63 1    
   122   62   64 1    
   123   62  123 1    
   124   63  124 1    
   125   63  125 1    
   126   63  126 1    
   127   64   65 am   BACKBONE|DICT|INTERRES
   128   64  127 1    
   129   65   66 2    
@<TRIPOS>SUBSTRUCTURE
     1 UNK         1 GROUP             0       ****    0 ROOT    
