@<TRIPOS>MOLECULE
3R134
127   129    1
SMALL
USER_CHARGES


@<TRIPOS>ATOM
      1 CA         34.5229  -45.7012  -56.5286 C.3       0 UNK        -0.1968 
      2 C          33.8849  -45.6969  -55.1481 C.2       0 UNK         0.4852 
      3 O          32.8521  -46.3338  -54.9461 O.2       0 UNK        -0.5359 
      4 N          34.5029  -45.0002  -54.1850 N.am      1 UNK        -0.4300 
      5 CA         33.9876  -44.8259  -52.8187 C.3       1 UNK         0.0863 
      6 C6         34.6908  -43.6742  -52.0560 C.3       11 UNK        -0.0953 
      7 S7         34.8160  -42.1246  -53.0166 S.3       11 UNK        -0.2369 
      8 C8         33.1966  -41.3386  -52.7222 C.3       11 UNK         0.0226 
      9 C9         32.0560  -42.0443  -53.4476 C.ar      11 UNK        -0.0699 
     10 C10        30.9730  -42.5573  -52.7247 C.ar      11 UNK        -0.0804 
     11 C11        29.9260  -43.2096  -53.3833 C.ar      11 UNK        -0.0871 
     12 C12        29.9568  -43.3267  -54.7741 C.ar      11 UNK        -0.1008 
     13 C13        31.0375  -42.8332  -55.5096 C.ar      11 UNK        -0.0735 
     14 C14        32.0797  -42.1833  -54.8410 C.ar      11 UNK        -0.0945 
     15 C15        31.0606  -42.9901  -57.0248 C.3       11 UNK         0.0169 
     16 S16        30.7957  -44.7234  -57.5291 S.3       11 UNK        -0.2669 
     17 C17        29.8239  -44.5168  -59.0594 C.3       11 UNK        -0.0850 
     18 CA         28.3301  -44.1645  -58.8109 C.3       10 UNK         0.0855 
     19 C          27.5629  -44.0172  -60.1594 C.2       10 UNK         0.5543 
     20 N          26.5049  -44.7764  -60.4229 N.am      10 UNK        -0.7343 
     21 O          27.9369  -43.1883  -60.9853 O.2       10 UNK        -0.5027 
     22 N          27.6963  -45.0727  -57.8424 N.am      10 UNK        -0.4495 
     23 C          26.5826  -44.7991  -57.1498 C.2       10 UNK         0.4903 
     24 O          26.0124  -43.7076  -57.1723 O.2       10 UNK        -0.4860 
     25 CA         26.0115  -45.9512  -56.2994 C.3       9 UNK         0.0227 
     26 CB         24.5248  -45.7567  -55.9358 C.3       9 UNK        -0.1964 
     27 N          26.2374  -47.2713  -56.9046 N.am      9 UNK        -0.4231 
     28 C          25.8121  -47.6932  -58.1058 C.2       9 UNK         0.5014 
     29 O          25.1027  -47.0193  -58.8543 O.2       9 UNK        -0.5270 
     30 CA         26.2967  -49.0667  -58.5940 C.3       8 UNK         0.0284 
     31 CB         27.4052  -48.8843  -59.6466 C.3       8 UNK        -0.1977 
     32 N          26.8146  -49.9136  -57.5140 N.am      8 UNK        -0.4342 
     33 C          26.3497  -51.1306  -57.2083 C.2       8 UNK         0.5039 
     34 O          25.3695  -51.6482  -57.7464 O.2       8 UNK        -0.5547 
     35 CA         27.1249  -51.9321  -56.1501 C.3       7 UNK         0.0281 
     36 CB         28.3439  -52.6209  -56.7857 C.3       7 UNK        -0.1963 
     37 N          27.5616  -51.1455  -54.9949 N.am      7 UNK        -0.4444 
     38 C          26.7465  -50.7128  -54.0230 C.2       7 UNK         0.5104 
     39 O          25.5207  -50.8231  -54.0542 O.2       7 UNK        -0.5100 
     40 CA         27.4142  -50.0809  -52.7913 C.3       6 UNK         0.0396 
     41 CB         28.0382  -51.1631  -51.8946 C.3       6 UNK        -0.1801 
     42 N          28.4392  -49.1098  -53.1721 N.am      6 UNK        -0.4747 
     43 C          28.1948  -47.8087  -53.3839 C.2       6 UNK         0.5012 
     44 O          27.0875  -47.2942  -53.2273 O.2       6 UNK        -0.5003 
     45 CA         29.3676  -46.9365  -53.8910 C.3       5 UNK         0.0782 
     46 C46        30.1737  -46.3021  -52.7295 C.3       11 UNK        -0.0868 
     47 S47        29.2496  -45.2274  -51.5736 S.3       11 UNK        -0.2515 
     48 C48        28.7619  -43.8018  -52.6019 C.3       11 UNK         0.0199 
     49 N          30.2766  -47.6560  -54.7907 N.am      5 UNK        -0.4607 
     50 C          29.9389  -48.3086  -55.9087 C.2       4 UNK         0.5031 
     51 O          28.8008  -48.3235  -56.3743 O.2       4 UNK        -0.5119 
     52 CA         31.0259  -49.1703  -56.5709 C.3       4 UNK         0.0263 
     53 CB         31.8243  -48.3712  -57.6097 C.3       4 UNK        -0.1967 
     54 N          31.9263  -49.8133  -55.6035 N.am      4 UNK        -0.4237 
     55 C          31.5344  -50.7265  -54.7029 C.2       3 UNK         0.4908 
     56 O          30.3606  -51.0673  -54.5531 O.2       3 UNK        -0.5102 
     57 CA         32.6083  -51.3644  -53.8057 C.3       3 UNK         0.0241 
     58 CB         33.6363  -52.1724  -54.6243 C.3       3 UNK        -0.1971 
     59 N          33.2499  -50.4176  -52.8843 N.am      3 UNK        -0.4139 
     60 C          34.0567  -49.3924  -53.1857 C.2       2 UNK         0.5016 
     61 O          34.4222  -49.1103  -54.3308 O.2       2 UNK        -0.5319 
     62 CA         34.5551  -48.5487  -52.0042 C.3       2 UNK         0.0286 
     63 CB         35.9344  -49.0373  -51.5333 C.3       2 UNK        -0.1963 
     64 N          34.6658  -47.1697  -52.4645 N.am      2 UNK        -0.4790 
     65 C          33.9751  -46.1283  -51.9849 C.2       1 UNK         0.5024 
     66 O          33.3218  -46.1697  -50.9418 O.2       1 UNK        -0.4888 
     67 H67        35.4180  -45.0809  -56.5669 H         1 UNK         0.0892 
     68 H68        33.8166  -45.3232  -57.2669 H         1 UNK         0.0892 
     69 H69        34.7993  -46.7175  -56.8078 H         1 UNK         0.0892 
     70 H70        35.3471  -44.4884  -54.3980 H         1 UNK         0.3107 
     71 H71        32.9402  -44.5471  -52.9229 H         1 UNK         0.0773 
     72 H72        35.7052  -43.9696  -51.7815 H         1 UNK         0.0680 
     73 H73        34.1725  -43.4637  -51.1185 H         1 UNK         0.0680 
     74 H74        33.0120  -41.2909  -51.6479 H         1 UNK         0.0650 
     75 H75        33.2434  -40.3063  -53.0710 H         1 UNK         0.0650 
     76 H76        30.9486  -42.4654  -51.6474 H         1 UNK         0.1397 
     77 H77        29.1469  -43.8205  -55.2927 H         1 UNK         0.1363 
     78 H78        32.9174  -41.7911  -55.4012 H         1 UNK         0.1355 
     79 H79        32.0094  -42.6475  -57.4402 H         1 UNK         0.0707 
     80 H80        30.2873  -42.3477  -57.4458 H         1 UNK         0.0707 
     81 H81        29.9003  -45.4466  -59.6261 H         1 UNK         0.1034 
     82 H82        30.3033  -43.7519  -59.6736 H         1 UNK         0.1034 
     83 H83        28.3069  -43.1694  -58.3641 H         1 UNK         0.0482 
     84 H84        26.0256  -44.6579  -61.3011 H         1 UNK         0.3460 
     85 H85        26.1584  -45.4510  -59.7515 H         1 UNK         0.3460 
     86 H86        28.1123  -45.9881  -57.7533 H         1 UNK         0.2989 
     87 H87        26.5797  -45.9365  -55.3710 H         1 UNK         0.0559 
     88 H88        23.8939  -45.6974  -56.8232 H         1 UNK         0.0848 
     89 H89        24.3773  -44.8359  -55.3703 H         1 UNK         0.0848 
     90 H90        24.1595  -46.5762  -55.3169 H         1 UNK         0.0848 
     91 H91        26.9096  -47.8566  -56.4203 H         1 UNK         0.3144 
     92 H92        25.4424  -49.5430  -59.0790 H         1 UNK         0.0727 
     93 H93        27.7119  -49.8424  -60.0663 H         1 UNK         0.0790 
     94 H94        28.2898  -48.4060  -59.2238 H         1 UNK         0.0790 
     95 H95        27.0625  -48.2634  -60.4758 H         1 UNK         0.0790 
     96 H96        27.6242  -49.5538  -57.0122 H         1 UNK         0.3215 
     97 H97        26.4567  -52.7149  -55.7836 H         1 UNK         0.0863 
     98 H98        28.8551  -53.2633  -56.0684 H         1 UNK         0.0808 
     99 H99        29.0683  -51.8977  -57.1605 H         1 UNK         0.0808 
    100 H100       28.0441  -53.2481  -57.6264 H         1 UNK         0.0808 
    101 H101       28.5670  -51.0437  -54.8657 H         1 UNK         0.3118 
    102 H102       26.6369  -49.5827  -52.2076 H         1 UNK         0.0546 
    103 H103       27.2875  -51.8915  -51.5852 H         1 UNK         0.0828 
    104 H104       28.4600  -50.7296  -50.9878 H         1 UNK         0.0828 
    105 H105       28.8318  -51.7113  -52.4033 H         1 UNK         0.0828 
    106 H106       29.3563  -49.4775  -53.3914 H         1 UNK         0.3005 
    107 H107       28.9286  -46.1326  -54.4828 H         1 UNK         0.1257 
    108 H108       30.9921  -45.7134  -53.1407 H         1 UNK         0.0775 
    109 H109       30.6520  -47.0847  -52.1376 H         1 UNK         0.0775 
    110 H110       27.9592  -44.1115  -53.2731 H         1 UNK         0.0840 
    111 H111       28.3347  -43.0326  -51.9571 H         1 UNK         0.0840 
    112 H112       31.2669  -47.5757  -54.5820 H         1 UNK         0.2987 
    113 H113       30.5104  -49.9693  -57.1063 H         1 UNK         0.0785 
    114 H114       31.1601  -47.9273  -58.3526 H         1 UNK         0.0798 
    115 H115       32.5307  -49.0067  -58.1435 H         1 UNK         0.0798 
    116 H116       32.3836  -47.5579  -57.1530 H         1 UNK         0.0798 
    117 H117       32.8969  -49.5129  -55.5809 H         1 UNK         0.3079 
    118 H118       32.0854  -52.0786  -53.1671 H         1 UNK         0.0794 
    119 H119       34.2171  -51.5454  -55.3010 H         1 UNK         0.0786 
    120 H120       33.1380  -52.9274  -55.2339 H         1 UNK         0.0786 
    121 H121       34.3362  -52.6946  -53.9721 H         1 UNK         0.0786 
    122 H122       33.0130  -50.5552  -51.9111 H         1 UNK         0.3032 
    123 H123       33.8425  -48.6270  -51.1797 H         1 UNK         0.1094 
    124 H124       36.3077  -48.4301  -50.7084 H         1 UNK         0.0794 
    125 H125       35.8851  -50.0685  -51.1810 H         1 UNK         0.0794 
    126 H126       36.6722  -49.0009  -52.3360 H         1 UNK         0.0794 
    127 H127       35.0901  -47.0663  -53.3770 H         1 UNK         0.3016 
@<TRIPOS>BOND
     1    1    2 1    
     2    1   67 1    
     3    1   68 1    
     4    1   69 1    
     5    2    3 2    
     6    2    4 am   BACKBONE|DICT|INTERRES
     7    4    5 1    
     8    4   70 1    
     9    5    6 1    
    10    5   65 1    
    11    5   71 1    
    12    6    7 1    
    13    6   72 1    
    14    6   73 1    
    15    7    8 1    
    16    8    9 1    
    17    8   74 1    
    18    8   75 1    
    19    9   10 ar   
    20    9   14 ar   
    21   10   11 ar   
    22   10   76 1    
    23   11   12 ar   
    24   11   48 1    
    25   12   13 ar   
    26   12   77 1    
    27   13   14 ar   
    28   13   15 1    
    29   14   78 1    
    30   15   16 1    
    31   15   79 1    
    32   15   80 1    
    33   16   17 1    
    34   17   18 1    
    35   17   81 1    
    36   17   82 1    
    37   18   19 1    
    38   18   22 1    
    39   18   83 1    
    40   19   20 am   BACKBONE|DICT|INTERRES
    41   19   21 2    
    42   20   84 1    
    43   20   85 1    
    44   22   23 am   BACKBONE|DICT|INTERRES
    45   22   86 1    
    46   23   24 2    
    47   23   25 1    
    48   25   26 1    
    49   25   27 1    
    50   25   87 1    
    51   26   88 1    
    52   26   89 1    
    53   26   90 1    
    54   27   28 am   BACKBONE|DICT|INTERRES
    55   27   91 1    
    56   28   29 2    
    57   28   30 1    
    58   30   31 1    
    59   30   32 1    
    60   30   92 1    
    61   31   93 1    
    62   31   94 1    
    63   31   95 1    
    64   32   33 am   BACKBONE|DICT|INTERRES
    65   32   96 1    
    66   33   34 2    
    67   33   35 1    
    68   35   36 1    
    69   35   37 1    
    70   35   97 1    
    71   36   98 1    
    72   36   99 1    
    73   36  100 1    
    74   37   38 am   BACKBONE|DICT|INTERRES
    75   37  101 1    
    76   38   39 2    
    77   38   40 1    
    78   40   41 1    
    79   40   42 1    
    80   40  102 1    
    81   41  103 1    
    82   41  104 1    
    83   41  105 1    
    84   42   43 am   BACKBONE|DICT|INTERRES
    85   42  106 1    
    86   43   44 2    
    87   43   45 1    
    88   45   46 1    
    89   45   49 1    
    90   45  107 1    
    91   46   47 1    
    92   46  108 1    
    93   46  109 1    
    94   47   48 1    
    95   48  110 1    
    96   48  111 1    
    97   49   50 am   BACKBONE|DICT|INTERRES
    98   49  112 1    
    99   50   51 2    
   100   50   52 1    
   101   52   53 1    
   102   52   54 1    
   103   52  113 1    
   104   53  114 1    
   105   53  115 1    
   106   53  116 1    
   107   54   55 am   BACKBONE|DICT|INTERRES
   108   54  117 1    
   109   55   56 2    
   110   55   57 1    
   111   57   58 1    
   112   57   59 1    
   113   57  118 1    
   114   58  119 1    
   115   58  120 1    
   116   58  121 1    
   117   59   60 am   BACKBONE|DICT|INTERRES
   118   59  122 1    
   119   60   61 2    
   120   60   62 1    
   121   62   63 1    
   122   62   64 1    
   123   62  123 1    
   124   63  124 1    
   125   63  125 1    
   126   63  126 1    
   127   64   65 am   BACKBONE|DICT|INTERRES
   128   64  127 1    
   129   65   66 2    
@<TRIPOS>SUBSTRUCTURE
     1 UNK         1 GROUP             0       ****    0 ROOT    
