@<TRIPOS>MOLECULE
3R134
127   129    1
SMALL
USER_CHARGES


@<TRIPOS>ATOM
      1 CA         32.8273  -42.0126  -48.0187 C.3       0 UNK        -0.1968 
      2 C          33.8882  -42.7871  -48.7873 C.2       0 UNK         0.4852 
      3 O          35.0776  -42.6448  -48.4982 O.2       0 UNK        -0.5359 
      4 N          33.4683  -43.5982  -49.7673 N.am      1 UNK        -0.4300 
      5 CA         34.3391  -44.4693  -50.5614 C.3       1 UNK         0.0863 
      6 C6         33.6245  -44.9468  -51.8508 C.3       11 UNK        -0.0953 
      7 S7         34.7999  -45.4295  -53.1615 S.3       11 UNK        -0.2369 
      8 C8         34.3834  -44.2684  -54.5005 C.3       11 UNK         0.0226 
      9 C9         33.2384  -44.7755  -55.3688 C.ar      11 UNK        -0.0699 
     10 C10        33.5093  -45.4210  -56.5790 C.ar      11 UNK        -0.0804 
     11 C11        32.4667  -45.8314  -57.4148 C.ar      11 UNK        -0.0871 
     12 C12        31.1440  -45.6092  -57.0222 C.ar      11 UNK        -0.1008 
     13 C13        30.8529  -45.0021  -55.7939 C.ar      11 UNK        -0.0735 
     14 C14        31.9093  -44.5720  -54.9848 C.ar      11 UNK        -0.0945 
     15 C15        29.4195  -44.7689  -55.3148 C.3       11 UNK         0.0169 
     16 S16        28.2091  -45.9964  -55.9167 S.3       11 UNK        -0.2669 
     17 C17        27.6112  -45.1956  -57.4456 C.3       11 UNK        -0.0850 
     18 CA         26.1581  -44.6808  -57.2858 C.3       10 UNK         0.0855 
     19 C          25.7738  -43.7434  -58.4603 C.2       10 UNK         0.5543 
     20 N          25.2727  -44.2631  -59.5729 N.am      10 UNK        -0.7343 
     21 O          25.9293  -42.5293  -58.3568 O.2       10 UNK        -0.5027 
     22 N          25.2126  -45.7966  -57.1343 N.am      10 UNK        -0.4495 
     23 C          24.2135  -45.8462  -56.2440 C.2       10 UNK         0.4903 
     24 O          23.9863  -44.9577  -55.4210 O.2       10 UNK        -0.4860 
     25 CA         23.3336  -47.1154  -56.2572 C.3       9 UNK         0.0227 
     26 CB         21.9702  -46.9173  -55.5599 C.3       9 UNK        -0.1964 
     27 N          23.1705  -47.6928  -57.5967 N.am      9 UNK        -0.4231 
     28 C          22.5842  -47.1225  -58.6631 C.2       9 UNK         0.5014 
     29 O          21.9811  -46.0488  -58.6217 O.2       9 UNK        -0.5270 
     30 CA         22.7171  -47.8713  -60.0099 C.3       8 UNK         0.0284 
     31 CB         22.5815  -46.9294  -61.2257 C.3       8 UNK        -0.1977 
     32 N          23.9455  -48.6740  -60.1187 N.am      8 UNK        -0.4342 
     33 C          25.2032  -48.2317  -59.9796 C.2       8 UNK         0.5039 
     34 O          25.5059  -47.0547  -59.7759 O.2       8 UNK        -0.5547 
     35 CA         26.3100  -49.2940  -59.9668 C.3       7 UNK         0.0281 
     36 CB         27.3672  -49.0007  -61.0438 C.3       7 UNK        -0.1963 
     37 N          26.9596  -49.3412  -58.6558 N.am      7 UNK        -0.4444 
     38 C          26.3646  -49.6376  -57.4916 C.2       7 UNK         0.5104 
     39 O          25.1677  -49.9182  -57.3966 O.2       7 UNK        -0.5100 
     40 CA         27.2239  -49.5801  -56.2112 C.3       6 UNK         0.0396 
     41 CB         27.0160  -50.8257  -55.3261 C.3       6 UNK        -0.1801 
     42 N          28.6566  -49.3206  -56.4277 N.am      6 UNK        -0.4747 
     43 C          29.5624  -50.1067  -57.0333 C.2       6 UNK         0.5012 
     44 O          29.2960  -51.1924  -57.5483 O.2       6 UNK        -0.5003 
     45 CA         31.0100  -49.5780  -57.0971 C.3       5 UNK         0.0782 
     46 C46        31.2633  -48.8660  -58.4488 C.3       11 UNK        -0.0868 
     47 S47        32.9849  -48.2835  -58.6266 S.3       11 UNK        -0.2515 
     48 C48        32.7726  -46.4789  -58.7587 C.3       11 UNK         0.0199 
     49 N          31.3521  -48.7332  -55.9466 N.am      5 UNK        -0.4607 
     50 C          31.5160  -49.1913  -54.7008 C.2       4 UNK         0.5031 
     51 O          31.3389  -50.3661  -54.3694 O.2       4 UNK        -0.5119 
     52 CA         31.9235  -48.1560  -53.6407 C.3       4 UNK         0.0263 
     53 CB         30.6767  -47.6303  -52.9100 C.3       4 UNK        -0.1967 
     54 N          32.8629  -48.7151  -52.6643 N.am      4 UNK        -0.4237 
     55 C          34.1011  -49.1350  -52.9587 C.2       3 UNK         0.4908 
     56 O          34.6216  -49.0260  -54.0705 O.2       3 UNK        -0.5102 
     57 CA         34.9138  -49.7176  -51.7985 C.3       3 UNK         0.0241 
     58 CB         35.9609  -50.7493  -52.2678 C.3       3 UNK        -0.1971 
     59 N          35.5645  -48.6039  -51.1184 N.am      3 UNK        -0.4139 
     60 C          36.0290  -48.6170  -49.8633 C.2       2 UNK         0.5016 
     61 O          35.9836  -49.6003  -49.1228 O.2       2 UNK        -0.5319 
     62 CA         36.6434  -47.3060  -49.3385 C.3       2 UNK         0.0286 
     63 CB         38.1653  -47.3006  -49.5555 C.3       2 UNK        -0.1963 
     64 N          36.0612  -46.1116  -49.9605 N.am      2 UNK        -0.4790 
     65 C          34.8200  -45.6684  -49.7189 C.2       1 UNK         0.5024 
     66 O          34.0539  -46.1922  -48.9058 O.2       1 UNK        -0.4888 
     67 H67        33.0050  -40.9414  -48.1097 H         1 UNK         0.0892 
     68 H68        31.8227  -42.2216  -48.3860 H         1 UNK         0.0892 
     69 H69        32.8632  -42.2759  -46.9619 H         1 UNK         0.0892 
     70 H70        32.4773  -43.7010  -49.9318 H         1 UNK         0.3107 
     71 H71        35.2096  -43.8735  -50.8463 H         1 UNK         0.0773 
     72 H72        32.9514  -45.7818  -51.6514 H         1 UNK         0.0680 
     73 H73        32.9936  -44.1442  -52.2307 H         1 UNK         0.0680 
     74 H74        34.1432  -43.2872  -54.0886 H         1 UNK         0.0650 
     75 H75        35.2740  -44.1224  -55.1136 H         1 UNK         0.0650 
     76 H76        34.5346  -45.5846  -56.8824 H         1 UNK         0.1397 
     77 H77        30.3432  -45.9103  -57.6809 H         1 UNK         0.1363 
     78 H78        31.6918  -44.0706  -54.0531 H         1 UNK         0.1355 
     79 H79        29.1035  -43.7619  -55.5899 H         1 UNK         0.0707 
     80 H80        29.3956  -44.8038  -54.2245 H         1 UNK         0.0707 
     81 H81        27.6733  -45.9138  -58.2655 H         1 UNK         0.1034 
     82 H82        28.2854  -44.3794  -57.7129 H         1 UNK         0.1034 
     83 H83        26.1346  -44.0641  -56.3849 H         1 UNK         0.0482 
     84 H84        25.2252  -45.2745  -59.6851 H         1 UNK         0.3460 
     85 H85        25.0164  -43.6567  -60.3346 H         1 UNK         0.3460 
     86 H86        25.2775  -46.5143  -57.8471 H         1 UNK         0.2989 
     87 H87        23.8850  -47.8606  -55.6820 H         1 UNK         0.0559 
     88 H88        21.3775  -47.8317  -55.5788 H         1 UNK         0.0848 
     89 H89        21.3842  -46.1268  -56.0293 H         1 UNK         0.0848 
     90 H90        22.1035  -46.6416  -54.5131 H         1 UNK         0.0848 
     91 H91        23.6579  -48.5730  -57.7390 H         1 UNK         0.3144 
     92 H92        21.8854  -48.5766  -60.0435 H         1 UNK         0.0727 
     93 H93        22.6631  -47.4778  -62.1641 H         1 UNK         0.0790 
     94 H94        23.3477  -46.1535  -61.2231 H         1 UNK         0.0790 
     95 H95        21.6125  -46.4286  -61.2290 H         1 UNK         0.0790 
     96 H96        23.8030  -49.6684  -60.2377 H         1 UNK         0.3215 
     97 H97        25.8755  -50.2759  -60.1655 H         1 UNK         0.0863 
     98 H98        28.1381  -49.7712  -61.0652 H         1 UNK         0.0808 
     99 H99        27.8568  -48.0395  -60.8797 H         1 UNK         0.0808 
    100 H100       26.9137  -48.9689  -62.0354 H         1 UNK         0.0808 
    101 H101       27.9385  -49.1037  -58.6272 H         1 UNK         0.3118 
    102 H102       26.8515  -48.7220  -55.6504 H         1 UNK         0.0546 
    103 H103       27.2989  -51.7434  -55.8423 H         1 UNK         0.0828 
    104 H104       25.9701  -50.9293  -55.0348 H         1 UNK         0.0828 
    105 H105       27.6012  -50.7623  -54.4087 H         1 UNK         0.0828 
    106 H106       28.9837  -48.4335  -56.0663 H         1 UNK         0.3005 
    107 H107       31.6604  -50.4555  -57.0577 H         1 UNK         0.1257 
    108 H108       31.0689  -49.5519  -59.2759 H         1 UNK         0.0775 
    109 H109       30.5722  -48.0340  -58.5869 H         1 UNK         0.0775 
    110 H110       33.6896  -46.0517  -59.1677 H         1 UNK         0.0840 
    111 H111       31.9902  -46.2504  -59.4843 H         1 UNK         0.0840 
    112 H112       31.5450  -47.7606  -56.1474 H         1 UNK         0.2987 
    113 H113       32.4192  -47.3206  -54.1388 H         1 UNK         0.0785 
    114 H114       30.9262  -46.8395  -52.2038 H         1 UNK         0.0798 
    115 H115       30.1669  -48.4235  -52.3616 H         1 UNK         0.0798 
    116 H116       29.9580  -47.2141  -53.6162 H         1 UNK         0.0798 
    117 H117       32.5127  -48.8497  -51.7271 H         1 UNK         0.3079 
    118 H118       34.2244  -50.2109  -51.1096 H         1 UNK         0.0794 
    119 H119       35.4892  -51.5499  -52.8390 H         1 UNK         0.0786 
    120 H120       36.4707  -51.2124  -51.4230 H         1 UNK         0.0786 
    121 H121       36.7194  -50.2942  -52.9059 H         1 UNK         0.0786 
    122 H122       35.6261  -47.7445  -51.6487 H         1 UNK         0.3032 
    123 H123       36.4502  -47.2630  -48.2639 H         1 UNK         0.1094 
    124 H124       38.6291  -48.1672  -49.0820 H         1 UNK         0.0794 
    125 H125       38.4242  -47.3312  -50.6147 H         1 UNK         0.0794 
    126 H126       38.6252  -46.4124  -49.1216 H         1 UNK         0.0794 
    127 H127       36.6276  -45.6298  -50.6452 H         1 UNK         0.3016 
@<TRIPOS>BOND
     1    1    2 1    
     2    1   67 1    
     3    1   68 1    
     4    1   69 1    
     5    2    3 2    
     6    2    4 am   BACKBONE|DICT|INTERRES
     7    4    5 1    
     8    4   70 1    
     9    5    6 1    
    10    5   65 1    
    11    5   71 1    
    12    6    7 1    
    13    6   72 1    
    14    6   73 1    
    15    7    8 1    
    16    8    9 1    
    17    8   74 1    
    18    8   75 1    
    19    9   10 ar   
    20    9   14 ar   
    21   10   11 ar   
    22   10   76 1    
    23   11   12 ar   
    24   11   48 1    
    25   12   13 ar   
    26   12   77 1    
    27   13   14 ar   
    28   13   15 1    
    29   14   78 1    
    30   15   16 1    
    31   15   79 1    
    32   15   80 1    
    33   16   17 1    
    34   17   18 1    
    35   17   81 1    
    36   17   82 1    
    37   18   19 1    
    38   18   22 1    
    39   18   83 1    
    40   19   20 am   BACKBONE|DICT|INTERRES
    41   19   21 2    
    42   20   84 1    
    43   20   85 1    
    44   22   23 am   BACKBONE|DICT|INTERRES
    45   22   86 1    
    46   23   24 2    
    47   23   25 1    
    48   25   26 1    
    49   25   27 1    
    50   25   87 1    
    51   26   88 1    
    52   26   89 1    
    53   26   90 1    
    54   27   28 am   BACKBONE|DICT|INTERRES
    55   27   91 1    
    56   28   29 2    
    57   28   30 1    
    58   30   31 1    
    59   30   32 1    
    60   30   92 1    
    61   31   93 1    
    62   31   94 1    
    63   31   95 1    
    64   32   33 am   BACKBONE|DICT|INTERRES
    65   32   96 1    
    66   33   34 2    
    67   33   35 1    
    68   35   36 1    
    69   35   37 1    
    70   35   97 1    
    71   36   98 1    
    72   36   99 1    
    73   36  100 1    
    74   37   38 am   BACKBONE|DICT|INTERRES
    75   37  101 1    
    76   38   39 2    
    77   38   40 1    
    78   40   41 1    
    79   40   42 1    
    80   40  102 1    
    81   41  103 1    
    82   41  104 1    
    83   41  105 1    
    84   42   43 am   BACKBONE|DICT|INTERRES
    85   42  106 1    
    86   43   44 2    
    87   43   45 1    
    88   45   46 1    
    89   45   49 1    
    90   45  107 1    
    91   46   47 1    
    92   46  108 1    
    93   46  109 1    
    94   47   48 1    
    95   48  110 1    
    96   48  111 1    
    97   49   50 am   BACKBONE|DICT|INTERRES
    98   49  112 1    
    99   50   51 2    
   100   50   52 1    
   101   52   53 1    
   102   52   54 1    
   103   52  113 1    
   104   53  114 1    
   105   53  115 1    
   106   53  116 1    
   107   54   55 am   BACKBONE|DICT|INTERRES
   108   54  117 1    
   109   55   56 2    
   110   55   57 1    
   111   57   58 1    
   112   57   59 1    
   113   57  118 1    
   114   58  119 1    
   115   58  120 1    
   116   58  121 1    
   117   59   60 am   BACKBONE|DICT|INTERRES
   118   59  122 1    
   119   60   61 2    
   120   60   62 1    
   121   62   63 1    
   122   62   64 1    
   123   62  123 1    
   124   63  124 1    
   125   63  125 1    
   126   63  126 1    
   127   64   65 am   BACKBONE|DICT|INTERRES
   128   64  127 1    
   129   65   66 2    
@<TRIPOS>SUBSTRUCTURE
     1 UNK         1 GROUP             0       ****    0 ROOT    
