@<TRIPOS>MOLECULE
3R134
127   129    1
SMALL
USER_CHARGES


@<TRIPOS>ATOM
      1 CA         35.4579  -47.8397  -52.6876 C.3       0 UNK        -0.1968 
      2 C          34.0282  -47.4906  -53.0683 C.2       0 UNK         0.4852 
      3 O          33.4306  -48.2020  -53.8772 O.2       0 UNK        -0.5359 
      4 N          33.4800  -46.4133  -52.4838 N.am      1 UNK        -0.4300 
      5 CA         32.1458  -45.8479  -52.7429 C.3       1 UNK         0.0863 
      6 C6         31.8010  -44.6780  -51.7789 C.3       11 UNK        -0.0953 
      7 S7         33.1121  -43.4155  -51.6447 S.3       11 UNK        -0.2369 
      8 C8         32.4130  -42.0388  -52.6139 C.3       11 UNK         0.0226 
      9 C9         32.2114  -42.4001  -54.0794 C.ar      11 UNK        -0.0699 
     10 C10        33.2657  -42.9409  -54.8222 C.ar      11 UNK        -0.0804 
     11 C11        33.0791  -43.3125  -56.1545 C.ar      11 UNK        -0.0871 
     12 C12        31.8400  -43.0897  -56.7622 C.ar      11 UNK        -0.1008 
     13 C13        30.7820  -42.5348  -56.0365 C.ar      11 UNK        -0.0735 
     14 C14        30.9703  -42.1976  -54.6927 C.ar      11 UNK        -0.0945 
     15 C15        29.4426  -42.2998  -56.7166 C.3       11 UNK         0.0169 
     16 S16        28.4206  -43.8073  -56.7028 S.3       11 UNK        -0.2669 
     17 C17        27.4007  -43.5651  -58.2019 C.3       11 UNK        -0.0850 
     18 CA         25.8726  -43.6626  -57.9521 C.3       10 UNK         0.0855 
     19 C          25.1048  -43.3542  -59.2728 C.2       10 UNK         0.5543 
     20 N          24.4926  -44.3317  -59.9302 N.am      10 UNK        -0.7343 
     21 O          25.0714  -42.2057  -59.7073 O.2       10 UNK        -0.5027 
     22 N          25.5078  -44.9267  -57.2878 N.am      10 UNK        -0.4495 
     23 C          24.2949  -45.2316  -56.8049 C.2       10 UNK         0.4903 
     24 O          23.3163  -44.4870  -56.8665 O.2       10 UNK        -0.4860 
     25 CA         24.1570  -46.5994  -56.1189 C.3       9 UNK         0.0227 
     26 CB         23.9381  -47.7097  -57.1593 C.3       9 UNK        -0.1964 
     27 N          25.3205  -46.9142  -55.2848 N.am      9 UNK        -0.4231 
     28 C          25.5571  -46.3474  -54.0908 C.2       9 UNK         0.5014 
     29 O          24.7910  -45.5290  -53.5777 O.2       9 UNK        -0.5270 
     30 CA         26.8586  -46.7145  -53.3431 C.3       8 UNK         0.0284 
     31 CB         26.6542  -46.7973  -51.8134 C.3       8 UNK        -0.1977 
     32 N          27.5612  -47.8998  -53.8537 N.am      8 UNK        -0.4342 
     33 C          27.1220  -49.1665  -53.9137 C.2       8 UNK         0.5039 
     34 O          26.0408  -49.5356  -53.4526 O.2       8 UNK        -0.5547 
     35 CA         28.0297  -50.1810  -54.6528 C.3       7 UNK         0.0281 
     36 CB         27.2516  -51.4327  -55.1098 C.3       7 UNK        -0.1963 
     37 N          28.7833  -49.6249  -55.7913 N.am      7 UNK        -0.4444 
     38 C          28.2672  -48.9248  -56.8157 C.2       7 UNK         0.5104 
     39 O          27.0839  -48.5880  -56.8745 O.2       7 UNK        -0.5100 
     40 CA         29.2164  -48.5044  -57.9487 C.3       6 UNK         0.0396 
     41 CB         28.6720  -47.2879  -58.7322 C.3       6 UNK        -0.1801 
     42 N          30.5688  -48.2347  -57.4544 N.am      6 UNK        -0.4747 
     43 C          31.6516  -48.1399  -58.2382 C.2       6 UNK         0.5012 
     44 O          31.6329  -48.3209  -59.4570 O.2       6 UNK        -0.5003 
     45 CA         32.9778  -47.7647  -57.5500 C.3       5 UNK         0.0782 
     46 C46        32.8389  -46.4519  -56.7476 C.3       11 UNK        -0.0868 
     47 S47        34.4555  -45.7054  -56.3535 S.3       11 UNK        -0.2515 
     48 C48        34.2079  -43.9890  -56.9195 C.3       11 UNK         0.0199 
     49 N          33.4755  -48.8777  -56.7367 N.am      5 UNK        -0.4607 
     50 C          33.9138  -50.0343  -57.2527 C.2       4 UNK         0.5031 
     51 O          34.0318  -50.2376  -58.4618 O.2       4 UNK        -0.5119 
     52 CA         34.3108  -51.1664  -56.2901 C.3       4 UNK         0.0263 
     53 CB         35.8373  -51.1860  -56.1036 C.3       4 UNK        -0.1967 
     54 N          33.6790  -51.1653  -54.9688 N.am      4 UNK        -0.4237 
     55 C          32.3707  -51.1375  -54.6789 C.2       3 UNK         0.4908 
     56 O          31.4702  -50.9456  -55.4993 O.2       3 UNK        -0.5102 
     57 CA         31.9985  -51.3833  -53.2110 C.3       3 UNK         0.0241 
     58 CB         33.1507  -51.9124  -52.3274 C.3       3 UNK        -0.1971 
     59 N          31.4767  -50.1481  -52.6412 N.am      3 UNK        -0.4139 
     60 C          30.4778  -50.0870  -51.7529 C.2       2 UNK         0.5016 
     61 O          29.8798  -51.0815  -51.3396 O.2       2 UNK        -0.5319 
     62 CA         30.0563  -48.7014  -51.2331 C.3       2 UNK         0.0286 
     63 CB         29.8266  -48.7122  -49.7112 C.3       2 UNK        -0.1963 
     64 N          31.0088  -47.6385  -51.5525 N.am      2 UNK        -0.4790 
     65 C          31.0331  -46.9119  -52.6779 C.2       1 UNK         0.5024 
     66 O          30.2746  -47.0840  -53.6335 O.2       1 UNK        -0.4888 
     67 H67        35.4951  -48.8339  -52.2435 H         1 UNK         0.0892 
     68 H68        36.0882  -47.8388  -53.5766 H         1 UNK         0.0892 
     69 H69        35.8759  -47.1305  -51.9736 H         1 UNK         0.0892 
     70 H70        34.0391  -45.8741  -51.8379 H         1 UNK         0.3107 
     71 H71        32.1620  -45.4545  -53.7605 H         1 UNK         0.0773 
     72 H72        30.8702  -44.1975  -52.0871 H         1 UNK         0.0680 
     73 H73        31.6238  -45.0478  -50.7672 H         1 UNK         0.0680 
     74 H74        33.0899  -41.1860  -52.5521 H         1 UNK         0.0650 
     75 H75        31.4747  -41.7243  -52.1544 H         1 UNK         0.0650 
     76 H76        34.2239  -43.1116  -54.3505 H         1 UNK         0.1397 
     77 H77        31.6882  -43.3673  -57.7965 H         1 UNK         0.1363 
     78 H78        30.1498  -41.7776  -54.1270 H         1 UNK         0.1355 
     79 H79        29.6251  -41.9760  -57.7423 H         1 UNK         0.0707 
     80 H80        28.8974  -41.4895  -56.2302 H         1 UNK         0.0707 
     81 H81        27.7096  -44.3042  -58.9431 H         1 UNK         0.1034 
     82 H82        27.6359  -42.5948  -58.6432 H         1 UNK         0.1034 
     83 H83        25.6044  -42.8651  -57.2566 H         1 UNK         0.0482 
     84 H84        24.5125  -45.2743  -59.5767 H         1 UNK         0.3460 
     85 H85        23.9979  -44.1207  -60.7825 H         1 UNK         0.3460 
     86 H86        26.2541  -45.5954  -57.1706 H         1 UNK         0.2989 
     87 H87        23.2737  -46.5676  -55.4772 H         1 UNK         0.0559 
     88 H88        23.0272  -47.5308  -57.7321 H         1 UNK         0.0848 
     89 H89        23.8358  -48.6850  -56.6831 H         1 UNK         0.0848 
     90 H90        24.7618  -47.7712  -57.8712 H         1 UNK         0.0848 
     91 H91        25.9912  -47.5779  -55.6659 H         1 UNK         0.3144 
     92 H92        27.5335  -45.8777  -53.5300 H         1 UNK         0.0727 
     93 H93        27.6042  -46.8632  -51.2867 H         1 UNK         0.0790 
     94 H94        26.0459  -47.6559  -51.5289 H         1 UNK         0.0790 
     95 H95        26.1544  -45.9072  -51.4296 H         1 UNK         0.0790 
     96 H96        28.4970  -47.7092  -54.2023 H         1 UNK         0.3215 
     97 H97        28.7724  -50.5127  -53.9300 H         1 UNK         0.0863 
     98 H98        27.9096  -52.1526  -55.5965 H         1 UNK         0.0808 
     99 H99        26.4555  -51.1772  -55.8102 H         1 UNK         0.0808 
    100 H100       26.7906  -51.9412  -54.2621 H         1 UNK         0.0808 
    101 H101       29.7611  -49.9015  -55.8360 H         1 UNK         0.3118 
    102 H102       29.2656  -49.3567  -58.6292 H         1 UNK         0.0546 
    103 H103       28.6119  -46.4090  -58.0927 H         1 UNK         0.0828 
    104 H104       29.2982  -47.0361  -59.5873 H         1 UNK         0.0828 
    105 H105       27.6724  -47.4798  -59.1243 H         1 UNK         0.0828 
    106 H106       30.6653  -48.0777  -56.4600 H         1 UNK         0.3005 
    107 H107       33.7001  -47.5894  -58.3511 H         1 UNK         0.1257 
    108 H108       32.2912  -46.6152  -55.8189 H         1 UNK         0.0775 
    109 H109       32.2524  -45.7322  -57.3193 H         1 UNK         0.0775 
    110 H110       35.1330  -43.4290  -56.7756 H         1 UNK         0.0840 
    111 H111       34.0108  -43.9851  -57.9928 H         1 UNK         0.0840 
    112 H112       33.4325  -48.7633  -55.7268 H         1 UNK         0.2987 
    113 H113       34.0167  -52.1006  -56.7725 H         1 UNK         0.0785 
    114 H114       36.1598  -52.0610  -55.5389 H         1 UNK         0.0798 
    115 H115       36.1881  -50.2964  -55.5785 H         1 UNK         0.0798 
    116 H116       36.3505  -51.2195  -57.0660 H         1 UNK         0.0798 
    117 H117       34.3100  -51.2826  -54.1903 H         1 UNK         0.3079 
    118 H118       31.2129  -52.1418  -53.2316 H         1 UNK         0.0794 
    119 H119       33.5862  -52.8227  -52.7423 H         1 UNK         0.0786 
    120 H120       32.7886  -52.1642  -51.3303 H         1 UNK         0.0786 
    121 H121       33.9475  -51.1773  -52.2065 H         1 UNK         0.0786 
    122 H122       31.9055  -49.2916  -52.9794 H         1 UNK         0.3032 
    123 H123       29.1044  -48.4808  -51.7117 H         1 UNK         0.1094 
    124 H124       29.4920  -47.7381  -49.3536 H         1 UNK         0.0794 
    125 H125       29.0578  -49.4343  -49.4327 H         1 UNK         0.0794 
    126 H126       30.7348  -48.9767  -49.1682 H         1 UNK         0.0794 
    127 H127       31.7157  -47.4509  -50.8554 H         1 UNK         0.3016 
@<TRIPOS>BOND
     1    1    2 1    
     2    1   67 1    
     3    1   68 1    
     4    1   69 1    
     5    2    3 2    
     6    2    4 am   BACKBONE|DICT|INTERRES
     7    4    5 1    
     8    4   70 1    
     9    5    6 1    
    10    5   65 1    
    11    5   71 1    
    12    6    7 1    
    13    6   72 1    
    14    6   73 1    
    15    7    8 1    
    16    8    9 1    
    17    8   74 1    
    18    8   75 1    
    19    9   10 ar   
    20    9   14 ar   
    21   10   11 ar   
    22   10   76 1    
    23   11   12 ar   
    24   11   48 1    
    25   12   13 ar   
    26   12   77 1    
    27   13   14 ar   
    28   13   15 1    
    29   14   78 1    
    30   15   16 1    
    31   15   79 1    
    32   15   80 1    
    33   16   17 1    
    34   17   18 1    
    35   17   81 1    
    36   17   82 1    
    37   18   19 1    
    38   18   22 1    
    39   18   83 1    
    40   19   20 am   BACKBONE|DICT|INTERRES
    41   19   21 2    
    42   20   84 1    
    43   20   85 1    
    44   22   23 am   BACKBONE|DICT|INTERRES
    45   22   86 1    
    46   23   24 2    
    47   23   25 1    
    48   25   26 1    
    49   25   27 1    
    50   25   87 1    
    51   26   88 1    
    52   26   89 1    
    53   26   90 1    
    54   27   28 am   BACKBONE|DICT|INTERRES
    55   27   91 1    
    56   28   29 2    
    57   28   30 1    
    58   30   31 1    
    59   30   32 1    
    60   30   92 1    
    61   31   93 1    
    62   31   94 1    
    63   31   95 1    
    64   32   33 am   BACKBONE|DICT|INTERRES
    65   32   96 1    
    66   33   34 2    
    67   33   35 1    
    68   35   36 1    
    69   35   37 1    
    70   35   97 1    
    71   36   98 1    
    72   36   99 1    
    73   36  100 1    
    74   37   38 am   BACKBONE|DICT|INTERRES
    75   37  101 1    
    76   38   39 2    
    77   38   40 1    
    78   40   41 1    
    79   40   42 1    
    80   40  102 1    
    81   41  103 1    
    82   41  104 1    
    83   41  105 1    
    84   42   43 am   BACKBONE|DICT|INTERRES
    85   42  106 1    
    86   43   44 2    
    87   43   45 1    
    88   45   46 1    
    89   45   49 1    
    90   45  107 1    
    91   46   47 1    
    92   46  108 1    
    93   46  109 1    
    94   47   48 1    
    95   48  110 1    
    96   48  111 1    
    97   49   50 am   BACKBONE|DICT|INTERRES
    98   49  112 1    
    99   50   51 2    
   100   50   52 1    
   101   52   53 1    
   102   52   54 1    
   103   52  113 1    
   104   53  114 1    
   105   53  115 1    
   106   53  116 1    
   107   54   55 am   BACKBONE|DICT|INTERRES
   108   54  117 1    
   109   55   56 2    
   110   55   57 1    
   111   57   58 1    
   112   57   59 1    
   113   57  118 1    
   114   58  119 1    
   115   58  120 1    
   116   58  121 1    
   117   59   60 am   BACKBONE|DICT|INTERRES
   118   59  122 1    
   119   60   61 2    
   120   60   62 1    
   121   62   63 1    
   122   62   64 1    
   123   62  123 1    
   124   63  124 1    
   125   63  125 1    
   126   63  126 1    
   127   64   65 am   BACKBONE|DICT|INTERRES
   128   64  127 1    
   129   65   66 2    
@<TRIPOS>SUBSTRUCTURE
     1 UNK         1 GROUP             0       ****    0 ROOT    
