@<TRIPOS>MOLECULE
3R134
127   129    1
SMALL
USER_CHARGES


@<TRIPOS>ATOM
      1 CA         35.2190  -47.1486  -56.7926 C.3       0 UNK        -0.1968 
      2 C          34.3543  -47.0392  -55.5474 C.2       0 UNK         0.4852 
      3 O          33.5413  -47.9263  -55.2925 O.2       0 UNK        -0.5359 
      4 N          34.5317  -45.9681  -54.7614 N.am      1 UNK        -0.4300 
      5 CA         33.7529  -45.6312  -53.5593 C.3       1 UNK         0.0863 
      6 C6         34.2680  -44.3385  -52.8724 C.3       11 UNK        -0.0953 
      7 S7         34.5125  -42.9465  -54.0297 S.3       11 UNK        -0.2369 
      8 C8         33.0700  -41.8929  -53.6822 C.3       11 UNK         0.0226 
      9 C9         31.7608  -42.5731  -54.0527 C.ar      11 UNK        -0.0699 
     10 C10        30.8300  -42.8975  -53.0594 C.ar      11 UNK        -0.0804 
     11 C11        29.6246  -43.5186  -53.3963 C.ar      11 UNK        -0.0871 
     12 C12        29.3659  -43.8208  -54.7344 C.ar      11 UNK        -0.1008 
     13 C13        30.2825  -43.5071  -55.7369 C.ar      11 UNK        -0.0735 
     14 C14        31.4786  -42.8739  -55.3902 C.ar      11 UNK        -0.0945 
     15 C15        30.0102  -43.9203  -57.1767 C.3       11 UNK         0.0169 
     16 S16        29.5398  -42.5354  -58.2669 S.3       11 UNK        -0.2669 
     17 C17        27.7845  -42.0702  -57.9720 C.3       11 UNK        -0.0850 
     18 CA         26.8455  -42.9784  -57.1145 C.3       10 UNK         0.0855 
     19 C          25.4261  -42.3678  -56.8795 C.2       10 UNK         0.5543 
     20 N          25.2959  -41.0502  -56.7902 N.am      10 UNK        -0.7343 
     21 O          24.4373  -43.0802  -56.7153 O.2       10 UNK        -0.5027 
     22 N          26.7890  -44.3774  -57.5765 N.am      10 UNK        -0.4495 
     23 C          26.2926  -44.8052  -58.7453 C.2       10 UNK         0.4903 
     24 O          25.8507  -44.0596  -59.6206 O.2       10 UNK        -0.4860 
     25 CA         26.2965  -46.3222  -59.0011 C.3       9 UNK         0.0227 
     26 CB         27.4454  -46.6939  -59.9498 C.3       9 UNK        -0.1964 
     27 N          26.3899  -47.1226  -57.7728 N.am      9 UNK        -0.4231 
     28 C          25.3336  -47.5044  -57.0406 C.2       9 UNK         0.5014 
     29 O          24.1705  -47.2133  -57.3284 O.2       9 UNK        -0.5270 
     30 CA         25.6202  -48.3452  -55.7756 C.3       8 UNK         0.0284 
     31 CB         24.3519  -48.9957  -55.1845 C.3       8 UNK        -0.1977 
     32 N          26.6729  -49.3537  -55.9501 N.am      8 UNK        -0.4342 
     33 C          26.7325  -50.3447  -56.8519 C.2       8 UNK         0.5039 
     34 O          25.8506  -50.5824  -57.6799 O.2       8 UNK        -0.5547 
     35 CA         28.0162  -51.2030  -56.8153 C.3       7 UNK         0.0281 
     36 CB         28.1046  -52.2160  -57.9762 C.3       7 UNK        -0.1963 
     37 N          29.2319  -50.3814  -56.7448 N.am      7 UNK        -0.4444 
     38 C          29.6228  -49.4352  -57.6116 C.2       7 UNK         0.5104 
     39 O          29.0671  -49.2091  -58.6860 O.2       7 UNK        -0.5100 
     40 CA         30.8113  -48.5645  -57.1609 C.3       6 UNK         0.0396 
     41 CB         31.1104  -47.3943  -58.1170 C.3       6 UNK        -0.1801 
     42 N          30.6514  -48.0761  -55.7869 N.am      6 UNK        -0.4747 
     43 C          29.6243  -47.3812  -55.2694 C.2       6 UNK         0.5012 
     44 O          28.6729  -46.9658  -55.9350 O.2       6 UNK        -0.5003 
     45 CA         29.6696  -47.1601  -53.7381 C.3       5 UNK         0.0782 
     46 C46        28.3710  -46.5542  -53.1252 C.3       11 UNK        -0.0868 
     47 S47        28.7748  -45.5366  -51.6664 S.3       11 UNK        -0.2515 
     48 C48        28.5905  -43.8471  -52.3260 C.3       11 UNK         0.0199 
     49 N          30.0834  -48.3826  -53.0346 N.am      5 UNK        -0.4607 
     50 C          29.4137  -49.5464  -53.0481 C.2       4 UNK         0.5031 
     51 O          28.3607  -49.7184  -53.6654 O.2       4 UNK        -0.5119 
     52 CA         30.0534  -50.7219  -52.2859 C.3       4 UNK         0.0263 
     53 CB         29.2796  -52.0446  -52.4728 C.3       4 UNK        -0.1967 
     54 N          31.4665  -50.9068  -52.6310 N.am      4 UNK        -0.4237 
     55 C          31.9915  -51.0746  -53.8538 C.2       3 UNK         0.4908 
     56 O          31.3235  -51.1259  -54.8882 O.2       3 UNK        -0.5102 
     57 CA         33.5266  -51.1615  -53.9181 C.3       3 UNK         0.0241 
     58 CB         34.0573  -51.2825  -55.3595 C.3       3 UNK        -0.1971 
     59 N          34.1422  -49.9999  -53.2684 N.am      3 UNK        -0.4139 
     60 C          34.3665  -49.8877  -51.9506 C.2       2 UNK         0.5016 
     61 O          34.0614  -50.7651  -51.1418 O.2       2 UNK        -0.5319 
     62 CA         35.0060  -48.5888  -51.4281 C.3       2 UNK         0.0286 
     63 CB         36.5035  -48.8039  -51.1561 C.3       2 UNK        -0.1963 
     64 N          34.8450  -47.4428  -52.3247 N.am      2 UNK        -0.4790 
     65 C          33.6954  -46.7847  -52.5340 C.2       1 UNK         0.5024 
     66 O          32.6282  -47.0794  -51.9942 O.2       1 UNK        -0.4888 
     67 H67        35.8461  -48.0379  -56.7344 H         1 UNK         0.0892 
     68 H68        34.5889  -47.2336  -57.6776 H         1 UNK         0.0892 
     69 H69        35.8665  -46.2807  -56.9180 H         1 UNK         0.0892 
     70 H70        35.2112  -45.2698  -55.0288 H         1 UNK         0.3107 
     71 H71        32.7307  -45.4486  -53.8959 H         1 UNK         0.0773 
     72 H72        33.5845  -44.0319  -52.0784 H         1 UNK         0.0680 
     73 H73        35.2289  -44.5199  -52.3870 H         1 UNK         0.0680 
     74 H74        33.0815  -41.6049  -52.6299 H         1 UNK         0.0650 
     75 H75        33.1641  -40.9690  -54.2543 H         1 UNK         0.0650 
     76 H76        31.0406  -42.6642  -52.0247 H         1 UNK         0.1397 
     77 H77        28.4529  -44.3260  -54.9993 H         1 UNK         0.1363 
     78 H78        32.2005  -42.6332  -56.1588 H         1 UNK         0.1355 
     79 H79        29.2792  -44.7223  -57.2286 H         1 UNK         0.0707 
     80 H80        30.9274  -44.3519  -57.5787 H         1 UNK         0.0707 
     81 H81        27.3316  -41.9091  -58.9517 H         1 UNK         0.1034 
     82 H82        27.8386  -41.0797  -57.5197 H         1 UNK         0.1034 
     83 H83        27.2573  -43.0033  -56.1126 H         1 UNK         0.0482 
     84 H84        26.0857  -40.4323  -56.8841 H         1 UNK         0.3460 
     85 H85        24.3808  -40.6646  -56.6166 H         1 UNK         0.3460 
     86 H86        27.0957  -45.0763  -56.9161 H         1 UNK         0.2989 
     87 H87        25.3624  -46.5653  -59.5119 H         1 UNK         0.0559 
     88 H88        27.4146  -47.7513  -60.2121 H         1 UNK         0.0848 
     89 H89        27.3828  -46.1298  -60.8812 H         1 UNK         0.0848 
     90 H90        28.4182  -46.4834  -59.5080 H         1 UNK         0.0848 
     91 H91        27.3177  -47.3672  -57.4397 H         1 UNK         0.3144 
     92 H92        26.0024  -47.6431  -55.0334 H         1 UNK         0.0727 
     93 H93        24.5781  -49.5445  -54.2703 H         1 UNK         0.0790 
     94 H94        23.8909  -49.6900  -55.8879 H         1 UNK         0.0790 
     95 H95        23.6048  -48.2424  -54.9317 H         1 UNK         0.0790 
     96 H96        27.4354  -49.2999  -55.2771 H         1 UNK         0.3215 
     97 H97        27.9777  -51.7698  -55.8836 H         1 UNK         0.0863 
     98 H98        29.0092  -52.8200  -57.9068 H         1 UNK         0.0808 
     99 H99        28.1045  -51.7208  -58.9477 H         1 UNK         0.0808 
    100 H100       27.2557  -52.9003  -57.9611 H         1 UNK         0.0808 
    101 H101       29.8088  -50.5150  -55.9162 H         1 UNK         0.3118 
    102 H102       31.6855  -49.2171  -57.1539 H         1 UNK         0.0546 
    103 H103       30.2698  -46.7070  -58.1822 H         1 UNK         0.0828 
    104 H104       31.3174  -47.7549  -59.1251 H         1 UNK         0.0828 
    105 H105       31.9813  -46.8284  -57.7879 H         1 UNK         0.0828 
    106 H106       31.4119  -48.3375  -55.1698 H         1 UNK         0.3005 
    107 H107       30.4756  -46.4370  -53.6043 H         1 UNK         0.1257 
    108 H108       27.7969  -45.9557  -53.8278 H         1 UNK         0.0775 
    109 H109       27.6747  -47.3329  -52.8133 H         1 UNK         0.0775 
    110 H110       27.5824  -43.7197  -52.7237 H         1 UNK         0.0840 
    111 H111       28.6765  -43.1396  -51.4999 H         1 UNK         0.0840 
    112 H112       30.9506  -48.3081  -52.5148 H         1 UNK         0.2987 
    113 H113       30.0181  -50.4600  -51.2274 H         1 UNK         0.0785 
    114 H114       29.7294  -52.8520  -51.8952 H         1 UNK         0.0798 
    115 H115       29.2534  -52.3548  -53.5180 H         1 UNK         0.0798 
    116 H116       28.2465  -51.9438  -52.1378 H         1 UNK         0.0798 
    117 H117       32.1231  -50.8724  -51.8573 H         1 UNK         0.3079 
    118 H118       33.8201  -52.0683  -53.3851 H         1 UNK         0.0794 
    119 H119       33.6710  -52.1813  -55.8415 H         1 UNK         0.0786 
    120 H120       35.1451  -51.3475  -55.3779 H         1 UNK         0.0786 
    121 H121       33.7617  -50.4336  -55.9761 H         1 UNK         0.0786 
    122 H122       34.2965  -49.1926  -53.8630 H         1 UNK         0.3032 
    123 H123       34.5168  -48.3497  -50.4808 H         1 UNK         0.1094 
    124 H124       36.6596  -49.6324  -50.4636 H         1 UNK         0.0794 
    125 H125       37.0515  -49.0361  -52.0702 H         1 UNK         0.0794 
    126 H126       36.9567  -47.9202  -50.7065 H         1 UNK         0.0794 
    127 H127       35.6654  -47.1417  -52.8313 H         1 UNK         0.3016 
@<TRIPOS>BOND
     1    1    2 1    
     2    1   67 1    
     3    1   68 1    
     4    1   69 1    
     5    2    3 2    
     6    2    4 am   BACKBONE|DICT|INTERRES
     7    4    5 1    
     8    4   70 1    
     9    5    6 1    
    10    5   65 1    
    11    5   71 1    
    12    6    7 1    
    13    6   72 1    
    14    6   73 1    
    15    7    8 1    
    16    8    9 1    
    17    8   74 1    
    18    8   75 1    
    19    9   10 ar   
    20    9   14 ar   
    21   10   11 ar   
    22   10   76 1    
    23   11   12 ar   
    24   11   48 1    
    25   12   13 ar   
    26   12   77 1    
    27   13   14 ar   
    28   13   15 1    
    29   14   78 1    
    30   15   16 1    
    31   15   79 1    
    32   15   80 1    
    33   16   17 1    
    34   17   18 1    
    35   17   81 1    
    36   17   82 1    
    37   18   19 1    
    38   18   22 1    
    39   18   83 1    
    40   19   20 am   BACKBONE|DICT|INTERRES
    41   19   21 2    
    42   20   84 1    
    43   20   85 1    
    44   22   23 am   BACKBONE|DICT|INTERRES
    45   22   86 1    
    46   23   24 2    
    47   23   25 1    
    48   25   26 1    
    49   25   27 1    
    50   25   87 1    
    51   26   88 1    
    52   26   89 1    
    53   26   90 1    
    54   27   28 am   BACKBONE|DICT|INTERRES
    55   27   91 1    
    56   28   29 2    
    57   28   30 1    
    58   30   31 1    
    59   30   32 1    
    60   30   92 1    
    61   31   93 1    
    62   31   94 1    
    63   31   95 1    
    64   32   33 am   BACKBONE|DICT|INTERRES
    65   32   96 1    
    66   33   34 2    
    67   33   35 1    
    68   35   36 1    
    69   35   37 1    
    70   35   97 1    
    71   36   98 1    
    72   36   99 1    
    73   36  100 1    
    74   37   38 am   BACKBONE|DICT|INTERRES
    75   37  101 1    
    76   38   39 2    
    77   38   40 1    
    78   40   41 1    
    79   40   42 1    
    80   40  102 1    
    81   41  103 1    
    82   41  104 1    
    83   41  105 1    
    84   42   43 am   BACKBONE|DICT|INTERRES
    85   42  106 1    
    86   43   44 2    
    87   43   45 1    
    88   45   46 1    
    89   45   49 1    
    90   45  107 1    
    91   46   47 1    
    92   46  108 1    
    93   46  109 1    
    94   47   48 1    
    95   48  110 1    
    96   48  111 1    
    97   49   50 am   BACKBONE|DICT|INTERRES
    98   49  112 1    
    99   50   51 2    
   100   50   52 1    
   101   52   53 1    
   102   52   54 1    
   103   52  113 1    
   104   53  114 1    
   105   53  115 1    
   106   53  116 1    
   107   54   55 am   BACKBONE|DICT|INTERRES
   108   54  117 1    
   109   55   56 2    
   110   55   57 1    
   111   57   58 1    
   112   57   59 1    
   113   57  118 1    
   114   58  119 1    
   115   58  120 1    
   116   58  121 1    
   117   59   60 am   BACKBONE|DICT|INTERRES
   118   59  122 1    
   119   60   61 2    
   120   60   62 1    
   121   62   63 1    
   122   62   64 1    
   123   62  123 1    
   124   63  124 1    
   125   63  125 1    
   126   63  126 1    
   127   64   65 am   BACKBONE|DICT|INTERRES
   128   64  127 1    
   129   65   66 2    
@<TRIPOS>SUBSTRUCTURE
     1 UNK         1 GROUP             0       ****    0 ROOT    
