@<TRIPOS>MOLECULE
3R134
127   129    1
SMALL
USER_CHARGES


@<TRIPOS>ATOM
      1 CA         37.9157  -44.5785  -50.4952 C.3       0 UNK        -0.1968 
      2 C          37.5082  -45.6000  -51.5470 C.2       0 UNK         0.4852 
      3 O          38.3217  -46.4440  -51.9264 O.2       0 UNK        -0.5359 
      4 N          36.2590  -45.5262  -52.0250 N.am      1 UNK        -0.4300 
      5 CA         35.6751  -46.4622  -52.9876 C.3       1 UNK         0.0863 
      6 C6         34.3842  -45.8796  -53.6135 C.3       11 UNK        -0.0953 
      7 S7         33.7998  -46.8219  -55.0670 S.3       11 UNK        -0.2369 
      8 C8         33.8031  -45.5565  -56.3794 C.3       11 UNK         0.0226 
      9 C9         32.5040  -44.7617  -56.4010 C.ar      11 UNK        -0.0699 
     10 C10        32.2594  -43.7813  -55.4366 C.ar      11 UNK        -0.0804 
     11 C11        31.0506  -43.0826  -55.4206 C.ar      11 UNK        -0.0871 
     12 C12        30.1064  -43.3156  -56.4245 C.ar      11 UNK        -0.1008 
     13 C13        30.3402  -44.2880  -57.4019 C.ar      11 UNK        -0.0735 
     14 C14        31.5374  -45.0120  -57.3804 C.ar      11 UNK        -0.0945 
     15 C15        29.2994  -44.5654  -58.4765 C.3       11 UNK         0.0169 
     16 S16        27.9918  -45.6762  -57.8698 S.3       11 UNK        -0.2669 
     17 C17        26.8002  -44.4841  -57.1705 C.3       11 UNK        -0.0850 
     18 CA         25.4534  -45.1387  -56.7722 C.3       10 UNK         0.0855 
     19 C          24.5442  -44.1184  -56.0384 C.2       10 UNK         0.5543 
     20 N          24.7462  -43.9590  -54.7380 N.am      10 UNK        -0.7343 
     21 O          23.7075  -43.4455  -56.6377 O.2       10 UNK        -0.5027 
     22 N          24.8171  -45.8212  -57.9052 N.am      10 UNK        -0.4495 
     23 C          23.7358  -46.6062  -57.8423 C.2       10 UNK         0.4903 
     24 O          23.0846  -46.8059  -56.8167 O.2       10 UNK        -0.4860 
     25 CA         23.3492  -47.3586  -59.1290 C.3       9 UNK         0.0227 
     26 CB         22.6880  -46.4241  -60.1623 C.3       9 UNK        -0.1964 
     27 N          24.4642  -48.1331  -59.6993 N.am      9 UNK        -0.4231 
     28 C          25.5830  -47.6771  -60.2798 C.2       9 UNK         0.5014 
     29 O          25.8186  -46.4862  -60.4924 O.2       9 UNK        -0.5270 
     30 CA         26.6592  -48.7192  -60.5883 C.3       8 UNK         0.0284 
     31 CB         27.3806  -48.4347  -61.9206 C.3       8 UNK        -0.1977 
     32 N          27.6108  -48.6917  -59.4816 N.am      8 UNK        -0.4342 
     33 C          28.4174  -49.6975  -59.1258 C.2       8 UNK         0.5039 
     34 O          28.4456  -50.7899  -59.6943 O.2       8 UNK        -0.5547 
     35 CA         29.3578  -49.4401  -57.9365 C.3       7 UNK         0.0281 
     36 CB         30.5827  -48.6272  -58.3901 C.3       7 UNK        -0.1963 
     37 N          28.6986  -48.7519  -56.8226 N.am      7 UNK        -0.4444 
     38 C          27.8006  -49.3117  -55.9984 C.2       7 UNK         0.5104 
     39 O          27.4277  -50.4816  -56.0926 O.2       7 UNK        -0.5100 
     40 CA         27.2523  -48.4179  -54.8714 C.3       6 UNK         0.0396 
     41 CB         26.6395  -49.2146  -53.7045 C.3       6 UNK        -0.1801 
     42 N          28.2969  -47.5210  -54.3721 N.am      6 UNK        -0.4747 
     43 C          28.1171  -46.2551  -53.9716 C.2       6 UNK         0.5012 
     44 O          27.0147  -45.7059  -53.9138 O.2       6 UNK        -0.5003 
     45 CA         29.3939  -45.4750  -53.5864 C.3       5 UNK         0.0782 
     46 C46        29.0847  -44.0610  -53.0105 C.3       11 UNK        -0.0868 
     47 S47        30.5748  -43.0506  -52.7003 S.3       11 UNK        -0.2515 
     48 C48        30.7462  -42.1346  -54.2713 C.3       11 UNK         0.0199 
     49 N          30.3107  -46.2807  -52.7674 N.am      5 UNK        -0.4607 
     50 C          30.0708  -46.7624  -51.5396 C.2       4 UNK         0.5031 
     51 O          29.0352  -46.5500  -50.9068 O.2       4 UNK        -0.5119 
     52 CA         31.1847  -47.6382  -50.9266 C.3       4 UNK         0.0263 
     53 CB         30.7231  -48.4005  -49.6663 C.3       4 UNK        -0.1967 
     54 N          31.8008  -48.5655  -51.8877 N.am      4 UNK        -0.4237 
     55 C          31.1803  -49.5131  -52.6129 C.2       3 UNK         0.4908 
     56 O          29.9680  -49.7158  -52.5747 O.2       3 UNK        -0.5102 
     57 CA         32.0292  -50.3695  -53.5721 C.3       3 UNK         0.0241 
     58 CB         31.6329  -50.0897  -55.0307 C.3       3 UNK        -0.1971 
     59 N          33.4690  -50.1561  -53.4223 N.am      3 UNK        -0.4139 
     60 C          34.2366  -50.7404  -52.4917 C.2       2 UNK         0.5016 
     61 O          33.8280  -51.5848  -51.6943 O.2       2 UNK        -0.5319 
     62 CA         35.7049  -50.2813  -52.4208 C.3       2 UNK         0.0286 
     63 CB         36.6070  -51.2355  -53.2198 C.3       2 UNK        -0.1963 
     64 N          35.9130  -48.9067  -52.8944 N.am      2 UNK        -0.4790 
     65 C          35.4057  -47.8154  -52.3042 C.2       1 UNK         0.5024 
     66 O          34.7024  -47.8505  -51.2921 O.2       1 UNK        -0.4888 
     67 H67        37.1062  -43.8869  -50.2622 H         1 UNK         0.0892 
     68 H68        38.7673  -43.9969  -50.8471 H         1 UNK         0.0892 
     69 H69        38.2050  -45.0839  -49.5742 H         1 UNK         0.0892 
     70 H70        35.6281  -44.8320  -51.6508 H         1 UNK         0.3107 
     71 H71        36.4046  -46.6070  -53.7880 H         1 UNK         0.0773 
     72 H72        33.5764  -45.8176  -52.8816 H         1 UNK         0.0680 
     73 H73        34.5888  -44.8547  -53.9197 H         1 UNK         0.0680 
     74 H74        34.6552  -44.8859  -56.2594 H         1 UNK         0.0650 
     75 H75        33.9496  -46.0588  -57.3367 H         1 UNK         0.0650 
     76 H76        32.9867  -43.5836  -54.6641 H         1 UNK         0.1397 
     77 H77        29.1774  -42.7633  -56.4266 H         1 UNK         0.1363 
     78 H78        31.7197  -45.7696  -58.1297 H         1 UNK         0.1355 
     79 H79        29.7724  -45.0299  -59.3432 H         1 UNK         0.0707 
     80 H80        28.8674  -43.6306  -58.8363 H         1 UNK         0.0707 
     81 H81        26.6304  -43.6819  -57.8910 H         1 UNK         0.1034 
     82 H82        27.2607  -44.0244  -56.2952 H         1 UNK         0.1034 
     83 H83        25.6679  -45.9291  -56.0574 H         1 UNK         0.0482 
     84 H84        25.4542  -44.5131  -54.2654 H         1 UNK         0.3460 
     85 H85        24.1908  -43.2953  -54.2220 H         1 UNK         0.3460 
     86 H86        25.2924  -45.7502  -58.8005 H         1 UNK         0.2989 
     87 H87        22.5997  -48.0994  -58.8450 H         1 UNK         0.0559 
     88 H88        23.3520  -45.6197  -60.4795 H         1 UNK         0.0848 
     89 H89        21.7967  -45.9556  -59.7431 H         1 UNK         0.0848 
     90 H90        22.3777  -46.9725  -61.0516 H         1 UNK         0.0848 
     91 H91        24.4042  -49.1298  -59.5390 H         1 UNK         0.3144 
     92 H92        26.1909  -49.7043  -60.6467 H         1 UNK         0.0727 
     93 H93        28.1032  -49.2162  -62.1555 H         1 UNK         0.0790 
     94 H94        27.9143  -47.4837  -61.8966 H         1 UNK         0.0790 
     95 H95        26.6699  -48.3910  -62.7467 H         1 UNK         0.0790 
     96 H96        27.6457  -47.8238  -58.9593 H         1 UNK         0.3215 
     97 H97        29.7085  -50.4097  -57.5759 H         1 UNK         0.0863 
     98 H98        31.2816  -48.4579  -57.5716 H         1 UNK         0.0808 
     99 H99        30.2966  -47.6551  -58.7924 H         1 UNK         0.0808 
    100 H100       31.1274  -49.1538  -59.1748 H         1 UNK         0.0808 
    101 H101       28.9057  -47.7696  -56.7046 H         1 UNK         0.3118 
    102 H102       26.4548  -47.8320  -55.3258 H         1 UNK         0.0546 
    103 H103       25.8134  -49.8393  -54.0459 H         1 UNK         0.0828 
    104 H104       26.2456  -48.5506  -52.9351 H         1 UNK         0.0828 
    105 H105       27.3745  -49.8699  -53.2369 H         1 UNK         0.0828 
    106 H106       29.2227  -47.9228  -54.3122 H         1 UNK         0.3005 
    107 H107       29.9109  -45.3359  -54.5341 H         1 UNK         0.1257 
    108 H108       28.5342  -44.1464  -52.0723 H         1 UNK         0.0775 
    109 H109       28.4329  -43.5052  -53.6871 H         1 UNK         0.0775 
    110 H110       29.8382  -41.5601  -54.4612 H         1 UNK         0.0840 
    111 H111       31.5559  -41.4098  -54.1762 H         1 UNK         0.0840 
    112 H112       31.1970  -46.5016  -53.1972 H         1 UNK         0.2987 
    113 H113       31.9739  -46.9493  -50.6211 H         1 UNK         0.0785 
    114 H114       29.8996  -49.0812  -49.8851 H         1 UNK         0.0798 
    115 H115       30.3793  -47.7108  -48.8945 H         1 UNK         0.0798 
    116 H116       31.5369  -48.9851  -49.2372 H         1 UNK         0.0798 
    117 H117       32.8087  -48.4902  -51.9611 H         1 UNK         0.3079 
    118 H118       31.8047  -51.4164  -53.3563 H         1 UNK         0.0794 
    119 H119       31.7554  -49.0379  -55.2883 H         1 UNK         0.0786 
    120 H120       30.5880  -50.3497  -55.2015 H         1 UNK         0.0786 
    121 H121       32.2273  -50.6801  -55.7282 H         1 UNK         0.0786 
    122 H122       33.8970  -49.4794  -54.0386 H         1 UNK         0.3032 
    123 H123       36.0046  -50.3225  -51.3709 H         1 UNK         0.1094 
    124 H124       37.6596  -50.9747  -53.1073 H         1 UNK         0.0794 
    125 H125       36.4918  -52.2634  -52.8724 H         1 UNK         0.0794 
    126 H126       36.3682  -51.2228  -54.2840 H         1 UNK         0.0794 
    127 H127       36.4826  -48.7931  -53.7215 H         1 UNK         0.3016 
@<TRIPOS>BOND
     1    1    2 1    
     2    1   67 1    
     3    1   68 1    
     4    1   69 1    
     5    2    3 2    
     6    2    4 am   BACKBONE|DICT|INTERRES
     7    4    5 1    
     8    4   70 1    
     9    5    6 1    
    10    5   65 1    
    11    5   71 1    
    12    6    7 1    
    13    6   72 1    
    14    6   73 1    
    15    7    8 1    
    16    8    9 1    
    17    8   74 1    
    18    8   75 1    
    19    9   10 ar   
    20    9   14 ar   
    21   10   11 ar   
    22   10   76 1    
    23   11   12 ar   
    24   11   48 1    
    25   12   13 ar   
    26   12   77 1    
    27   13   14 ar   
    28   13   15 1    
    29   14   78 1    
    30   15   16 1    
    31   15   79 1    
    32   15   80 1    
    33   16   17 1    
    34   17   18 1    
    35   17   81 1    
    36   17   82 1    
    37   18   19 1    
    38   18   22 1    
    39   18   83 1    
    40   19   20 am   BACKBONE|DICT|INTERRES
    41   19   21 2    
    42   20   84 1    
    43   20   85 1    
    44   22   23 am   BACKBONE|DICT|INTERRES
    45   22   86 1    
    46   23   24 2    
    47   23   25 1    
    48   25   26 1    
    49   25   27 1    
    50   25   87 1    
    51   26   88 1    
    52   26   89 1    
    53   26   90 1    
    54   27   28 am   BACKBONE|DICT|INTERRES
    55   27   91 1    
    56   28   29 2    
    57   28   30 1    
    58   30   31 1    
    59   30   32 1    
    60   30   92 1    
    61   31   93 1    
    62   31   94 1    
    63   31   95 1    
    64   32   33 am   BACKBONE|DICT|INTERRES
    65   32   96 1    
    66   33   34 2    
    67   33   35 1    
    68   35   36 1    
    69   35   37 1    
    70   35   97 1    
    71   36   98 1    
    72   36   99 1    
    73   36  100 1    
    74   37   38 am   BACKBONE|DICT|INTERRES
    75   37  101 1    
    76   38   39 2    
    77   38   40 1    
    78   40   41 1    
    79   40   42 1    
    80   40  102 1    
    81   41  103 1    
    82   41  104 1    
    83   41  105 1    
    84   42   43 am   BACKBONE|DICT|INTERRES
    85   42  106 1    
    86   43   44 2    
    87   43   45 1    
    88   45   46 1    
    89   45   49 1    
    90   45  107 1    
    91   46   47 1    
    92   46  108 1    
    93   46  109 1    
    94   47   48 1    
    95   48  110 1    
    96   48  111 1    
    97   49   50 am   BACKBONE|DICT|INTERRES
    98   49  112 1    
    99   50   51 2    
   100   50   52 1    
   101   52   53 1    
   102   52   54 1    
   103   52  113 1    
   104   53  114 1    
   105   53  115 1    
   106   53  116 1    
   107   54   55 am   BACKBONE|DICT|INTERRES
   108   54  117 1    
   109   55   56 2    
   110   55   57 1    
   111   57   58 1    
   112   57   59 1    
   113   57  118 1    
   114   58  119 1    
   115   58  120 1    
   116   58  121 1    
   117   59   60 am   BACKBONE|DICT|INTERRES
   118   59  122 1    
   119   60   61 2    
   120   60   62 1    
   121   62   63 1    
   122   62   64 1    
   123   62  123 1    
   124   63  124 1    
   125   63  125 1    
   126   63  126 1    
   127   64   65 am   BACKBONE|DICT|INTERRES
   128   64  127 1    
   129   65   66 2    
@<TRIPOS>SUBSTRUCTURE
     1 UNK         1 GROUP             0       ****    0 ROOT    
