@<TRIPOS>MOLECULE
3R134
127   129    1
SMALL
USER_CHARGES


@<TRIPOS>ATOM
      1 CA         37.5284  -43.6646  -53.2636 C.3       0 UNK        -0.1968 
      2 C          36.0351  -43.5130  -52.9832 C.2       0 UNK         0.4852 
      3 O          35.6639  -42.7529  -52.0899 O.2       0 UNK        -0.5359 
      4 N          35.1435  -44.1936  -53.7162 N.am      1 UNK        -0.4300 
      5 CA         35.4218  -45.1978  -54.7482 C.3       1 UNK         0.0863 
      6 C6         34.2465  -45.3171  -55.7561 C.3       11 UNK        -0.0953 
      7 S7         32.6325  -45.7464  -55.0142 S.3       11 UNK        -0.2369 
      8 C8         31.7950  -44.1307  -55.0212 C.3       11 UNK         0.0226 
      9 C9         30.3995  -44.2294  -54.4243 C.ar      11 UNK        -0.0699 
     10 C10        30.2300  -44.3072  -53.0385 C.ar      11 UNK        -0.0804 
     11 C11        28.9501  -44.4115  -52.4850 C.ar      11 UNK        -0.0871 
     12 C12        27.8341  -44.4174  -53.3273 C.ar      11 UNK        -0.1008 
     13 C13        27.9915  -44.3509  -54.7136 C.ar      11 UNK        -0.0735 
     14 C14        29.2765  -44.2520  -55.2560 C.ar      11 UNK        -0.0945 
     15 C15        26.7749  -44.4498  -55.6212 C.3       11 UNK         0.0169 
     16 S16        25.9469  -42.8481  -55.8764 S.3       11 UNK        -0.2669 
     17 C17        27.0866  -41.9740  -57.0065 C.3       11 UNK        -0.0850 
     18 CA         26.6154  -41.9952  -58.4924 C.3       10 UNK         0.0855 
     19 C          27.3986  -40.9817  -59.3851 C.2       10 UNK         0.5543 
     20 N          27.6128  -41.2584  -60.6657 N.am      10 UNK        -0.7343 
     21 O          27.7889  -39.9117  -58.9239 O.2       10 UNK        -0.5027 
     22 N          26.5131  -43.3588  -59.0520 N.am      10 UNK        -0.4495 
     23 C          27.5282  -44.2143  -59.2287 C.2       10 UNK         0.4903 
     24 O          28.7037  -43.9646  -58.9526 O.2       10 UNK        -0.4860 
     25 CA         27.1715  -45.5787  -59.8351 C.3       9 UNK         0.0227 
     26 CB         27.3828  -45.5599  -61.3579 C.3       9 UNK        -0.1964 
     27 N          28.0253  -46.6089  -59.2434 N.am      9 UNK        -0.4231 
     28 C          27.6949  -47.3553  -58.1833 C.2       9 UNK         0.5014 
     29 O          26.5818  -47.3449  -57.6518 O.2       9 UNK        -0.5270 
     30 CA         28.8282  -48.2104  -57.5890 C.3       8 UNK         0.0284 
     31 CB         29.6388  -47.3793  -56.5832 C.3       8 UNK        -0.1977 
     32 N          28.3412  -49.4045  -56.9016 N.am      8 UNK        -0.4342 
     33 C          27.7212  -50.4429  -57.4750 C.2       8 UNK         0.5039 
     34 O          27.5087  -50.5370  -58.6851 O.2       8 UNK        -0.5547 
     35 CA         27.2830  -51.5823  -56.5428 C.3       7 UNK         0.0281 
     36 CB         28.4518  -52.5533  -56.3016 C.3       7 UNK        -0.1963 
     37 N          26.8048  -51.0770  -55.2533 N.am      7 UNK        -0.4444 
     38 C          25.5167  -50.8850  -54.9380 C.2       7 UNK         0.5104 
     39 O          24.5832  -51.1142  -55.7080 O.2       7 UNK        -0.5100 
     40 CA         25.1984  -50.3852  -53.5147 C.3       6 UNK         0.0396 
     41 CB         24.7610  -51.5608  -52.6259 C.3       6 UNK        -0.1801 
     42 N          26.3215  -49.6981  -52.8725 N.am      6 UNK        -0.4747 
     43 C          26.6770  -48.4282  -53.1169 C.2       6 UNK         0.5012 
     44 O          26.0478  -47.6773  -53.8611 O.2       6 UNK        -0.5003 
     45 CA         27.9572  -47.9096  -52.4247 C.3       5 UNK         0.0782 
     46 C46        27.5896  -47.1100  -51.1495 C.3       11 UNK        -0.0868 
     47 S47        29.0294  -46.2575  -50.4192 S.3       11 UNK        -0.2515 
     48 C48        28.7761  -44.5411  -50.9792 C.3       11 UNK         0.0199 
     49 N          28.9505  -48.9586  -52.1435 N.am      5 UNK        -0.4607 
     50 C          29.5240  -49.7429  -53.0634 C.2       4 UNK         0.5031 
     51 O          29.1973  -49.7534  -54.2515 O.2       4 UNK        -0.5119 
     52 CA         30.5891  -50.7330  -52.5699 C.3       4 UNK         0.0263 
     53 CB         29.9399  -52.0873  -52.2413 C.3       4 UNK        -0.1967 
     54 N          31.6218  -50.9297  -53.5893 N.am      4 UNK        -0.4237 
     55 C          32.5313  -50.0049  -53.9217 C.2       3 UNK         0.4908 
     56 O          32.6713  -48.9377  -53.3208 O.2       3 UNK        -0.5102 
     57 CA         33.3999  -50.3220  -55.1510 C.3       3 UNK         0.0241 
     58 CB         32.6258  -50.0447  -56.4518 C.3       3 UNK        -0.1971 
     59 N          34.6278  -49.5274  -55.1615 N.am      3 UNK        -0.4139 
     60 C          35.7147  -49.7812  -54.4220 C.2       2 UNK         0.5016 
     61 O          35.8395  -50.7750  -53.7042 O.2       2 UNK        -0.5319 
     62 CA         36.8695  -48.7651  -54.5083 C.3       2 UNK         0.0286 
     63 CB         37.9537  -49.2663  -55.4767 C.3       2 UNK        -0.1963 
     64 N          36.4392  -47.4235  -54.9227 N.am      2 UNK        -0.4790 
     65 C          35.8046  -46.5573  -54.1202 C.2       1 UNK         0.5024 
     66 O          35.5417  -46.7947  -52.9389 O.2       1 UNK        -0.4888 
     67 H67        38.1091  -43.0412  -52.5840 H         1 UNK         0.0892 
     68 H68        37.8522  -44.6950  -53.1221 H         1 UNK         0.0892 
     69 H69        37.7669  -43.3539  -54.2802 H         1 UNK         0.0892 
     70 H70        34.1679  -44.1134  -53.4722 H         1 UNK         0.3107 
     71 H71        36.2877  -44.8618  -55.3212 H         1 UNK         0.0773 
     72 H72        34.1444  -44.3776  -56.3014 H         1 UNK         0.0680 
     73 H73        34.4722  -46.0628  -56.5203 H         1 UNK         0.0680 
     74 H74        31.7447  -43.7573  -56.0453 H         1 UNK         0.0650 
     75 H75        32.3835  -43.4073  -54.4558 H         1 UNK         0.0650 
     76 H76        31.0968  -44.3089  -52.3918 H         1 UNK         0.1397 
     77 H77        26.8406  -44.5034  -52.9090 H         1 UNK         0.1363 
     78 H78        29.4047  -44.2152  -56.3291 H         1 UNK         0.1355 
     79 H79        26.0566  -45.1469  -55.1867 H         1 UNK         0.0707 
     80 H80        27.0549  -44.8804  -56.5794 H         1 UNK         0.0707 
     81 H81        27.1434  -40.9465  -56.6430 H         1 UNK         0.1034 
     82 H82        28.0980  -42.3664  -56.9146 H         1 UNK         0.1034 
     83 H83        25.5943  -41.6123  -58.5019 H         1 UNK         0.0482 
     84 H84        27.2886  -42.1257  -61.0612 H         1 UNK         0.3460 
     85 H85        28.1088  -40.5940  -61.2389 H         1 UNK         0.3460 
     86 H86        25.5832  -43.6450  -59.3232 H         1 UNK         0.2989 
     87 H87        26.1211  -45.8007  -59.6337 H         1 UNK         0.0559 
     88 H88        26.7363  -44.8214  -61.8336 H         1 UNK         0.0848 
     89 H89        27.1474  -46.5273  -61.8021 H         1 UNK         0.0848 
     90 H90        28.4115  -45.3113  -61.6226 H         1 UNK         0.0848 
     91 H91        28.9823  -46.6254  -59.5668 H         1 UNK         0.3144 
     92 H92        29.4879  -48.5362  -58.3958 H         1 UNK         0.0727 
     93 H93        29.0079  -47.0171  -55.7707 H         1 UNK         0.0790 
     94 H94        30.0953  -46.5119  -57.0613 H         1 UNK         0.0790 
     95 H95        30.4413  -47.9602  -56.1317 H         1 UNK         0.0790 
     96 H96        28.5187  -49.4445  -55.9002 H         1 UNK         0.3215 
     97 H97        26.4856  -52.1351  -57.0445 H         1 UNK         0.0863 
     98 H98        28.1460  -53.3937  -55.6784 H         1 UNK         0.0808 
     99 H99        29.2943  -52.0625  -55.8131 H         1 UNK         0.0808 
    100 H100       28.8164  -52.9644  -57.2439 H         1 UNK         0.0808 
    101 H101       27.5154  -50.7860  -54.5918 H         1 UNK         0.3118 
    102 H102       24.3594  -49.6900  -53.5905 H         1 UNK         0.0546 
    103 H103       25.5573  -52.2965  -52.5059 H         1 UNK         0.0828 
    104 H104       23.9030  -52.0782  -53.0577 H         1 UNK         0.0828 
    105 H105       24.4644  -51.2203  -51.6337 H         1 UNK         0.0828 
    106 H106       26.8865  -50.2386  -52.2333 H         1 UNK         0.3005 
    107 H107       28.4242  -47.2246  -53.1363 H         1 UNK         0.1257 
    108 H108       27.1710  -47.7760  -50.3926 H         1 UNK         0.0775 
    109 H109       26.8110  -46.3741  -51.3580 H         1 UNK         0.0775 
    110 H110       27.7881  -44.1950  -50.6711 H         1 UNK         0.0840 
    111 H111       29.4941  -43.8950  -50.4717 H         1 UNK         0.0840 
    112 H112       29.2693  -49.0116  -51.1867 H         1 UNK         0.2987 
    113 H113       31.0592  -50.3347  -51.6680 H         1 UNK         0.0785 
    114 H114       29.1867  -51.9815  -51.4593 H         1 UNK         0.0798 
    115 H115       30.6783  -52.8036  -51.8806 H         1 UNK         0.0798 
    116 H116       29.4470  -52.5234  -53.1115 H         1 UNK         0.0798 
    117 H117       31.5472  -51.7647  -54.1514 H         1 UNK         0.3079 
    118 H118       33.6645  -51.3813  -55.1197 H         1 UNK         0.0794 
    119 H119       31.6566  -50.5459  -56.4581 H         1 UNK         0.0786 
    120 H120       33.1785  -50.4002  -57.3216 H         1 UNK         0.0786 
    121 H121       32.4436  -48.9788  -56.5891 H         1 UNK         0.0786 
    122 H122       34.5991  -48.6592  -55.6738 H         1 UNK         0.3032 
    123 H123       37.3109  -48.6956  -53.5110 H         1 UNK         0.1094 
    124 H124       38.8147  -48.5976  -55.4899 H         1 UNK         0.0794 
    125 H125       38.3165  -50.2514  -55.1796 H         1 UNK         0.0794 
    126 H126       37.5775  -49.3525  -56.4969 H         1 UNK         0.0794 
    127 H127       36.6418  -47.1569  -55.8764 H         1 UNK         0.3016 
@<TRIPOS>BOND
     1    1    2 1    
     2    1   67 1    
     3    1   68 1    
     4    1   69 1    
     5    2    3 2    
     6    2    4 am   BACKBONE|DICT|INTERRES
     7    4    5 1    
     8    4   70 1    
     9    5    6 1    
    10    5   65 1    
    11    5   71 1    
    12    6    7 1    
    13    6   72 1    
    14    6   73 1    
    15    7    8 1    
    16    8    9 1    
    17    8   74 1    
    18    8   75 1    
    19    9   10 ar   
    20    9   14 ar   
    21   10   11 ar   
    22   10   76 1    
    23   11   12 ar   
    24   11   48 1    
    25   12   13 ar   
    26   12   77 1    
    27   13   14 ar   
    28   13   15 1    
    29   14   78 1    
    30   15   16 1    
    31   15   79 1    
    32   15   80 1    
    33   16   17 1    
    34   17   18 1    
    35   17   81 1    
    36   17   82 1    
    37   18   19 1    
    38   18   22 1    
    39   18   83 1    
    40   19   20 am   BACKBONE|DICT|INTERRES
    41   19   21 2    
    42   20   84 1    
    43   20   85 1    
    44   22   23 am   BACKBONE|DICT|INTERRES
    45   22   86 1    
    46   23   24 2    
    47   23   25 1    
    48   25   26 1    
    49   25   27 1    
    50   25   87 1    
    51   26   88 1    
    52   26   89 1    
    53   26   90 1    
    54   27   28 am   BACKBONE|DICT|INTERRES
    55   27   91 1    
    56   28   29 2    
    57   28   30 1    
    58   30   31 1    
    59   30   32 1    
    60   30   92 1    
    61   31   93 1    
    62   31   94 1    
    63   31   95 1    
    64   32   33 am   BACKBONE|DICT|INTERRES
    65   32   96 1    
    66   33   34 2    
    67   33   35 1    
    68   35   36 1    
    69   35   37 1    
    70   35   97 1    
    71   36   98 1    
    72   36   99 1    
    73   36  100 1    
    74   37   38 am   BACKBONE|DICT|INTERRES
    75   37  101 1    
    76   38   39 2    
    77   38   40 1    
    78   40   41 1    
    79   40   42 1    
    80   40  102 1    
    81   41  103 1    
    82   41  104 1    
    83   41  105 1    
    84   42   43 am   BACKBONE|DICT|INTERRES
    85   42  106 1    
    86   43   44 2    
    87   43   45 1    
    88   45   46 1    
    89   45   49 1    
    90   45  107 1    
    91   46   47 1    
    92   46  108 1    
    93   46  109 1    
    94   47   48 1    
    95   48  110 1    
    96   48  111 1    
    97   49   50 am   BACKBONE|DICT|INTERRES
    98   49  112 1    
    99   50   51 2    
   100   50   52 1    
   101   52   53 1    
   102   52   54 1    
   103   52  113 1    
   104   53  114 1    
   105   53  115 1    
   106   53  116 1    
   107   54   55 am   BACKBONE|DICT|INTERRES
   108   54  117 1    
   109   55   56 2    
   110   55   57 1    
   111   57   58 1    
   112   57   59 1    
   113   57  118 1    
   114   58  119 1    
   115   58  120 1    
   116   58  121 1    
   117   59   60 am   BACKBONE|DICT|INTERRES
   118   59  122 1    
   119   60   61 2    
   120   60   62 1    
   121   62   63 1    
   122   62   64 1    
   123   62  123 1    
   124   63  124 1    
   125   63  125 1    
   126   63  126 1    
   127   64   65 am   BACKBONE|DICT|INTERRES
   128   64  127 1    
   129   65   66 2    
@<TRIPOS>SUBSTRUCTURE
     1 UNK         1 GROUP             0       ****    0 ROOT    
