@<TRIPOS>MOLECULE
3R134
127   129    1
SMALL
USER_CHARGES


@<TRIPOS>ATOM
      1 CA         36.7678  -47.9870  -55.5635 C.3       0 UNK        -0.1968 
      2 C          35.6369  -47.3774  -54.7506 C.2       0 UNK         0.4852 
      3 O          34.5569  -47.9677  -54.6747 O.2       0 UNK        -0.5359 
      4 N          35.8788  -46.2137  -54.1303 N.am      1 UNK        -0.4300 
      5 CA         34.9344  -45.4133  -53.3328 C.3       1 UNK         0.0863 
      6 C6         35.4336  -43.9539  -53.1801 C.3       11 UNK        -0.0953 
      7 S7         35.4755  -43.0827  -54.7823 S.3       11 UNK        -0.2369 
      8 C8         34.0680  -41.9387  -54.6172 C.3       11 UNK         0.0226 
      9 C9         32.7251  -42.6562  -54.6646 C.ar      11 UNK        -0.0699 
     10 C10        32.0801  -43.0318  -53.4815 C.ar      11 UNK        -0.0804 
     11 C11        30.8297  -43.6564  -53.5191 C.ar      11 UNK        -0.0871 
     12 C12        30.2180  -43.8933  -54.7529 C.ar      11 UNK        -0.1008 
     13 C13        30.8491  -43.5172  -55.9415 C.ar      11 UNK        -0.0735 
     14 C14        32.1067  -42.9082  -55.8932 C.ar      11 UNK        -0.0945 
     15 C15        30.1488  -43.7352  -57.2716 C.3       11 UNK         0.0169 
     16 S16        29.1121  -42.2956  -57.6729 S.3       11 UNK        -0.2669 
     17 C17        28.1762  -42.8986  -59.1167 C.3       11 UNK        -0.0850 
     18 CA         26.7055  -43.2342  -58.7573 C.3       10 UNK         0.0855 
     19 C          25.8841  -43.5293  -60.0398 C.2       10 UNK         0.5543 
     20 N          24.9963  -42.6281  -60.4357 N.am      10 UNK        -0.7343 
     21 O          26.0848  -44.5456  -60.7012 O.2       10 UNK        -0.5027 
     22 N          26.6322  -44.3535  -57.8109 N.am      10 UNK        -0.4495 
     23 C          25.5533  -44.7016  -57.0988 C.2       10 UNK         0.4903 
     24 O          24.5111  -44.0455  -57.0629 O.2       10 UNK        -0.4860 
     25 CA         25.6787  -46.0142  -56.2975 C.3       9 UNK         0.0227 
     26 CB         24.3274  -46.5437  -55.7729 C.3       9 UNK        -0.1964 
     27 N          26.4021  -47.0494  -57.0474 N.am      9 UNK        -0.4231 
     28 C          26.0507  -47.5894  -58.2259 C.2       9 UNK         0.5014 
     29 O          24.9819  -47.3756  -58.7987 O.2       9 UNK        -0.5270 
     30 CA         27.0751  -48.5191  -58.8850 C.3       8 UNK         0.0284 
     31 CB         28.2479  -47.7124  -59.4728 C.3       8 UNK        -0.1977 
     32 N          27.5808  -49.5048  -57.9281 N.am      8 UNK        -0.4342 
     33 C          27.4089  -50.8275  -58.0435 C.2       8 UNK         0.5039 
     34 O          26.8198  -51.3675  -58.9814 O.2       8 UNK        -0.5547 
     35 CA         28.0026  -51.7130  -56.9374 C.3       7 UNK         0.0281 
     36 CB         29.4568  -52.0851  -57.2707 C.3       7 UNK        -0.1963 
     37 N          27.9447  -51.1177  -55.6003 N.am      7 UNK        -0.4444 
     38 C          26.8197  -50.9595  -54.8875 C.2       7 UNK         0.5104 
     39 O          25.6945  -51.2139  -55.3174 O.2       7 UNK        -0.5100 
     40 CA         26.9728  -50.4568  -53.4443 C.3       6 UNK         0.0396 
     41 CB         27.4222  -51.6033  -52.5237 C.3       6 UNK        -0.1801 
     42 N          27.9417  -49.3657  -53.3591 N.am      6 UNK        -0.4747 
     43 C          27.6268  -48.0690  -53.2279 C.2       6 UNK         0.5012 
     44 O          26.4758  -47.6492  -53.1101 O.2       6 UNK        -0.5003 
     45 CA         28.7948  -47.0604  -53.2381 C.3       5 UNK         0.0782 
     46 C46        29.2087  -46.7035  -51.7872 C.3       11 UNK        -0.0868 
     47 S47        30.7161  -45.6804  -51.6567 S.3       11 UNK        -0.2515 
     48 C48        30.1383  -44.0523  -52.2233 C.3       11 UNK         0.0199 
     49 N          29.9303  -47.5176  -54.0415 N.am      5 UNK        -0.4607 
     50 C          29.9103  -47.7644  -55.3562 C.2       4 UNK         0.5031 
     51 O          28.9178  -47.6161  -56.0687 O.2       4 UNK        -0.5119 
     52 CA         31.2003  -48.3204  -55.9743 C.3       4 UNK         0.0263 
     53 CB         32.0429  -47.1682  -56.5432 C.3       4 UNK        -0.1967 
     54 N          32.0115  -49.1140  -55.0421 N.am      4 UNK        -0.4237 
     55 C          31.6004  -50.2156  -54.3917 C.2       3 UNK         0.4908 
     56 O          30.4621  -50.6774  -54.4774 O.2       3 UNK        -0.5102 
     57 CA         32.6109  -50.8864  -53.4507 C.3       3 UNK         0.0241 
     58 CB         33.6405  -51.6997  -54.2512 C.3       3 UNK        -0.1971 
     59 N          33.3003  -49.9077  -52.6107 N.am      3 UNK        -0.4139 
     60 C          32.7385  -49.2506  -51.5840 C.2       2 UNK         0.5016 
     61 O          31.5987  -49.4616  -51.1713 O.2       2 UNK        -0.5319 
     62 CA         33.5771  -48.1297  -50.9607 C.3       2 UNK         0.0286 
     63 CB         34.7042  -48.6890  -50.0729 C.3       2 UNK        -0.1963 
     64 N          34.1122  -47.3090  -52.0413 N.am      2 UNK        -0.4790 
     65 C          34.5897  -46.0669  -51.9719 C.2       1 UNK         0.5024 
     66 O          34.7495  -45.4547  -50.9146 O.2       1 UNK        -0.4888 
     67 H67        37.0259  -48.9687  -55.1677 H         1 UNK         0.0892 
     68 H68        37.6635  -47.3665  -55.5476 H         1 UNK         0.0892 
     69 H69        36.4568  -48.1085  -56.6006 H         1 UNK         0.0892 
     70 H70        36.7955  -45.8012  -54.2264 H         1 UNK         0.3107 
     71 H71        33.9915  -45.3785  -53.8839 H         1 UNK         0.0773 
     72 H72        36.4360  -43.9359  -52.7488 H         1 UNK         0.0680 
     73 H73        34.8063  -43.3885  -52.4902 H         1 UNK         0.0680 
     74 H74        34.1660  -41.3685  -53.6921 H         1 UNK         0.0650 
     75 H75        34.1189  -41.2081  -55.4258 H         1 UNK         0.0650 
     76 H76        32.5458  -42.8329  -52.5264 H         1 UNK         0.1397 
     77 H77        29.2405  -44.3505  -54.7946 H         1 UNK         0.1363 
     78 H78        32.5933  -42.6073  -56.8109 H         1 UNK         0.1355 
     79 H79        29.5361  -44.6366  -57.2248 H         1 UNK         0.0707 
     80 H80        30.8794  -43.8945  -58.0663 H         1 UNK         0.0707 
     81 H81        28.6791  -43.7600  -59.5610 H         1 UNK         0.1034 
     82 H82        28.2091  -42.1114  -59.8727 H         1 UNK         0.1034 
     83 H83        26.2726  -42.3598  -58.2663 H         1 UNK         0.0482 
     84 H84        24.4673  -42.7975  -61.2770 H         1 UNK         0.3460 
     85 H85        24.8312  -41.7895  -59.9005 H         1 UNK         0.3460 
     86 H86        27.4266  -44.9724  -57.7996 H         1 UNK         0.2989 
     87 H87        26.2976  -45.7823  -55.4296 H         1 UNK         0.0559 
     88 H88        23.6239  -46.7399  -56.5823 H         1 UNK         0.0848 
     89 H89        23.8593  -45.8207  -55.1041 H         1 UNK         0.0848 
     90 H90        24.4581  -47.4674  -55.2087 H         1 UNK         0.0848 
     91 H91        27.3226  -47.2831  -56.6742 H         1 UNK         0.3144 
     92 H92        26.5685  -49.0142  -59.7162 H         1 UNK         0.0727 
     93 H93        28.9324  -48.3595  -60.0213 H         1 UNK         0.0790 
     94 H94        28.8236  -47.1974  -58.7037 H         1 UNK         0.0790 
     95 H95        27.8875  -46.9559  -60.1718 H         1 UNK         0.0790 
     96 H96        28.0629  -49.1422  -57.1134 H         1 UNK         0.3215 
     97 H97        27.4190  -52.6360  -56.9130 H         1 UNK         0.0863 
     98 H98        29.8688  -52.7750  -56.5339 H         1 UNK         0.0808 
     99 H99        30.1024  -51.2075  -57.3036 H         1 UNK         0.0808 
    100 H100       29.5214  -52.5740  -58.2437 H         1 UNK         0.0808 
    101 H101       28.8409  -50.9188  -55.1570 H         1 UNK         0.3118 
    102 H102       25.9915  -50.1208  -53.1027 H         1 UNK         0.0546 
    103 H103       26.7215  -52.4381  -52.5687 H         1 UNK         0.0828 
    104 H104       27.4717  -51.2781  -51.4845 H         1 UNK         0.0828 
    105 H105       28.4056  -51.9861  -52.8003 H         1 UNK         0.0828 
    106 H106       28.9168  -49.6161  -53.4793 H         1 UNK         0.3005 
    107 H107       28.4086  -46.1584  -53.7132 H         1 UNK         0.1257 
    108 H108       29.4010  -47.6145  -51.2163 H         1 UNK         0.0775 
    109 H109       28.3930  -46.1940  -51.2704 H         1 UNK         0.0775 
    110 H110       29.0548  -44.0486  -52.3503 H         1 UNK         0.0840 
    111 H111       30.3520  -43.3140  -51.4489 H         1 UNK         0.0840 
    112 H112       30.7928  -47.6604  -53.5374 H         1 UNK         0.2987 
    113 H113       30.9125  -48.9743  -56.7991 H         1 UNK         0.0785 
    114 H114       31.4764  -46.5946  -57.2779 H         1 UNK         0.0798 
    115 H115       32.9377  -47.5392  -57.0432 H         1 UNK         0.0798 
    116 H116       32.3594  -46.4747  -55.7623 H         1 UNK         0.0798 
    117 H117       32.9703  -48.7946  -54.9085 H         1 UNK         0.3079 
    118 H118       32.0610  -51.5725  -52.8026 H         1 UNK         0.0794 
    119 H119       34.2446  -51.0648  -54.9013 H         1 UNK         0.0786 
    120 H120       33.1464  -52.4387  -54.8837 H         1 UNK         0.0786 
    121 H121       34.3169  -52.2416  -53.5899 H         1 UNK         0.0786 
    122 H122       34.2448  -49.6714  -52.8799 H         1 UNK         0.3032 
    123 H123       32.9139  -47.5133  -50.3494 H         1 UNK         0.1094 
    124 H124       35.2475  -47.8890  -49.5701 H         1 UNK         0.0794 
    125 H125       34.3006  -49.3409  -49.2970 H         1 UNK         0.0794 
    126 H126       35.4250  -49.2706  -50.6485 H         1 UNK         0.0794 
    127 H127       34.0459  -47.6988  -52.9800 H         1 UNK         0.3016 
@<TRIPOS>BOND
     1    1    2 1    
     2    1   67 1    
     3    1   68 1    
     4    1   69 1    
     5    2    3 2    
     6    2    4 am   BACKBONE|DICT|INTERRES
     7    4    5 1    
     8    4   70 1    
     9    5    6 1    
    10    5   65 1    
    11    5   71 1    
    12    6    7 1    
    13    6   72 1    
    14    6   73 1    
    15    7    8 1    
    16    8    9 1    
    17    8   74 1    
    18    8   75 1    
    19    9   10 ar   
    20    9   14 ar   
    21   10   11 ar   
    22   10   76 1    
    23   11   12 ar   
    24   11   48 1    
    25   12   13 ar   
    26   12   77 1    
    27   13   14 ar   
    28   13   15 1    
    29   14   78 1    
    30   15   16 1    
    31   15   79 1    
    32   15   80 1    
    33   16   17 1    
    34   17   18 1    
    35   17   81 1    
    36   17   82 1    
    37   18   19 1    
    38   18   22 1    
    39   18   83 1    
    40   19   20 am   BACKBONE|DICT|INTERRES
    41   19   21 2    
    42   20   84 1    
    43   20   85 1    
    44   22   23 am   BACKBONE|DICT|INTERRES
    45   22   86 1    
    46   23   24 2    
    47   23   25 1    
    48   25   26 1    
    49   25   27 1    
    50   25   87 1    
    51   26   88 1    
    52   26   89 1    
    53   26   90 1    
    54   27   28 am   BACKBONE|DICT|INTERRES
    55   27   91 1    
    56   28   29 2    
    57   28   30 1    
    58   30   31 1    
    59   30   32 1    
    60   30   92 1    
    61   31   93 1    
    62   31   94 1    
    63   31   95 1    
    64   32   33 am   BACKBONE|DICT|INTERRES
    65   32   96 1    
    66   33   34 2    
    67   33   35 1    
    68   35   36 1    
    69   35   37 1    
    70   35   97 1    
    71   36   98 1    
    72   36   99 1    
    73   36  100 1    
    74   37   38 am   BACKBONE|DICT|INTERRES
    75   37  101 1    
    76   38   39 2    
    77   38   40 1    
    78   40   41 1    
    79   40   42 1    
    80   40  102 1    
    81   41  103 1    
    82   41  104 1    
    83   41  105 1    
    84   42   43 am   BACKBONE|DICT|INTERRES
    85   42  106 1    
    86   43   44 2    
    87   43   45 1    
    88   45   46 1    
    89   45   49 1    
    90   45  107 1    
    91   46   47 1    
    92   46  108 1    
    93   46  109 1    
    94   47   48 1    
    95   48  110 1    
    96   48  111 1    
    97   49   50 am   BACKBONE|DICT|INTERRES
    98   49  112 1    
    99   50   51 2    
   100   50   52 1    
   101   52   53 1    
   102   52   54 1    
   103   52  113 1    
   104   53  114 1    
   105   53  115 1    
   106   53  116 1    
   107   54   55 am   BACKBONE|DICT|INTERRES
   108   54  117 1    
   109   55   56 2    
   110   55   57 1    
   111   57   58 1    
   112   57   59 1    
   113   57  118 1    
   114   58  119 1    
   115   58  120 1    
   116   58  121 1    
   117   59   60 am   BACKBONE|DICT|INTERRES
   118   59  122 1    
   119   60   61 2    
   120   60   62 1    
   121   62   63 1    
   122   62   64 1    
   123   62  123 1    
   124   63  124 1    
   125   63  125 1    
   126   63  126 1    
   127   64   65 am   BACKBONE|DICT|INTERRES
   128   64  127 1    
   129   65   66 2    
@<TRIPOS>SUBSTRUCTURE
     1 UNK         1 GROUP             0       ****    0 ROOT    
