@<TRIPOS>MOLECULE
3R134
127   129    1
SMALL
USER_CHARGES


@<TRIPOS>ATOM
      1 CA         35.7038  -51.8243  -56.1066 C.3       0 UNK        -0.1968 
      2 C          34.8264  -50.7435  -55.4950 C.2       0 UNK         0.4852 
      3 O          34.5344  -50.8024  -54.2989 O.2       0 UNK        -0.5359 
      4 N          34.4209  -49.7476  -56.2986 N.am      1 UNK        -0.4300 
      5 CA         33.5271  -48.6439  -55.9153 C.3       1 UNK         0.0863 
      6 C6         33.1834  -47.7417  -57.1284 C.3       11 UNK        -0.0953 
      7 S7         31.6560  -46.7767  -56.8713 S.3       11 UNK        -0.2369 
      8 C8         32.3209  -45.1067  -56.5705 C.3       11 UNK         0.0226 
      9 C9         31.4291  -44.3363  -55.6098 C.ar      11 UNK        -0.0699 
     10 C10        31.6841  -44.3810  -54.2366 C.ar      11 UNK        -0.0804 
     11 C11        30.8306  -43.7461  -53.3312 C.ar      11 UNK        -0.0871 
     12 C12        29.7360  -43.0224  -53.8142 C.ar      11 UNK        -0.1008 
     13 C13        29.4863  -42.9442  -55.1877 C.ar      11 UNK        -0.0735 
     14 C14        30.3372  -43.6021  -56.0821 C.ar      11 UNK        -0.0945 
     15 C15        28.2845  -42.1662  -55.6996 C.3       11 UNK         0.0169 
     16 S16        26.8321  -43.2494  -55.8418 S.3       11 UNK        -0.2669 
     17 C17        25.5246  -42.0693  -56.3311 C.3       11 UNK        -0.0850 
     18 CA         25.2720  -41.9854  -57.8644 C.3       10 UNK         0.0855 
     19 C          26.3029  -41.1006  -58.6228 C.2       10 UNK         0.5543 
     20 N          26.7221  -41.4584  -59.8315 N.am      10 UNK        -0.7343 
     21 O          26.7159  -40.0583  -58.1210 O.2       10 UNK        -0.5027 
     22 N          25.0765  -43.3091  -58.4744 N.am      10 UNK        -0.4495 
     23 C          23.9305  -43.9970  -58.5169 C.2       10 UNK         0.4903 
     24 O          22.8626  -43.5794  -58.0679 O.2       10 UNK        -0.4860 
     25 CA         23.9725  -45.3857  -59.1851 C.3       9 UNK         0.0227 
     26 CB         23.3379  -45.3245  -60.5846 C.3       9 UNK        -0.1964 
     27 N          25.3312  -45.9300  -59.2975 N.am      9 UNK        -0.4231 
     28 C          26.0028  -46.5073  -58.2922 C.2       9 UNK         0.5014 
     29 O          25.5268  -46.7108  -57.1733 O.2       9 UNK        -0.5270 
     30 CA         27.4638  -46.8729  -58.5883 C.3       8 UNK         0.0284 
     31 CB         28.3829  -45.6790  -58.2892 C.3       8 UNK        -0.1977 
     32 N          27.8793  -48.0050  -57.7634 N.am      8 UNK        -0.4342 
     33 C          27.9455  -49.2735  -58.1889 C.2       8 UNK         0.5039 
     34 O          27.7346  -49.6154  -59.3539 O.2       8 UNK        -0.5547 
     35 CA         28.3070  -50.3565  -57.1539 C.3       7 UNK         0.0281 
     36 CB         29.8019  -50.7046  -57.2510 C.3       7 UNK        -0.1963 
     37 N          27.9814  -49.9787  -55.7757 N.am      7 UNK        -0.4444 
     38 C          26.7333  -49.8146  -55.3083 C.2       7 UNK         0.5104 
     39 O          25.7275  -50.0865  -55.9652 O.2       7 UNK        -0.5100 
     40 CA         26.5526  -49.2588  -53.8788 C.3       6 UNK         0.0396 
     41 CB         25.9871  -50.3447  -52.9484 C.3       6 UNK        -0.1801 
     42 N          27.7649  -48.7041  -53.2695 N.am      6 UNK        -0.4747 
     43 C          28.4676  -47.6517  -53.7168 C.2       6 UNK         0.5012 
     44 O          28.1422  -46.9851  -54.6985 O.2       6 UNK        -0.5003 
     45 CA         29.7879  -47.3369  -52.9771 C.3       5 UNK         0.0782 
     46 C46        29.5464  -46.2601  -51.8894 C.3       11 UNK        -0.0868 
     47 S47        31.1154  -45.5890  -51.2409 S.3       11 UNK        -0.2515 
     48 C48        31.0759  -43.8597  -51.8306 C.3       11 UNK         0.0199 
     49 N          30.4510  -48.5304  -52.4179 N.am      5 UNK        -0.4607 
     50 C          30.7747  -49.6375  -53.0997 C.2       4 UNK         0.5031 
     51 O          30.5303  -49.7951  -54.2955 O.2       4 UNK        -0.5119 
     52 CA         31.4547  -50.7616  -52.3079 C.3       4 UNK         0.0263 
     53 CB         31.3820  -52.1132  -53.0439 C.3       4 UNK        -0.1967 
     54 N          32.8582  -50.4328  -52.0806 N.am      4 UNK        -0.4237 
     55 C          33.3589  -49.9363  -50.9425 C.2       3 UNK         0.4908 
     56 O          32.6725  -49.6444  -49.9625 O.2       3 UNK        -0.5102 
     57 CA         34.8806  -49.7405  -50.8830 C.3       3 UNK         0.0241 
     58 CB         35.6036  -51.0963  -50.8055 C.3       3 UNK        -0.1971 
     59 N          35.3482  -49.0057  -52.0566 N.am      3 UNK        -0.4139 
     60 C          35.7229  -47.7188  -52.0544 C.2       2 UNK         0.5016 
     61 O          35.8294  -47.0350  -51.0352 O.2       2 UNK        -0.5319 
     62 CA         36.0294  -47.0693  -53.4199 C.3       2 UNK         0.0286 
     63 CB         37.5454  -47.0372  -53.6725 C.3       2 UNK        -0.1963 
     64 N          35.3685  -47.7190  -54.5574 N.am      2 UNK        -0.4790 
     65 C          34.0395  -47.8182  -54.7138 C.2       1 UNK         0.5024 
     66 O          33.2329  -47.3293  -53.9266 O.2       1 UNK        -0.4888 
     67 H67        36.6622  -51.8651  -55.5897 H         1 UNK         0.0892 
     68 H68        35.2215  -52.7962  -56.0070 H         1 UNK         0.0892 
     69 H69        35.8949  -51.6465  -57.1646 H         1 UNK         0.0892 
     70 H70        34.7099  -49.7555  -57.2666 H         1 UNK         0.3107 
     71 H71        32.6049  -49.1243  -55.5891 H         1 UNK         0.0773 
     72 H72        33.0057  -48.3608  -58.0091 H         1 UNK         0.0680 
     73 H73        34.0163  -47.0865  -57.3901 H         1 UNK         0.0680 
     74 H74        32.4088  -44.5767  -57.5199 H         1 UNK         0.0650 
     75 H75        33.3285  -45.1715  -56.1573 H         1 UNK         0.0650 
     76 H76        32.5273  -44.9437  -53.8632 H         1 UNK         0.1397 
     77 H77        29.0664  -42.5298  -53.1223 H         1 UNK         0.1363 
     78 H78        30.1354  -43.5630  -57.1436 H         1 UNK         0.1355 
     79 H79        28.0594  -41.3364  -55.0278 H         1 UNK         0.0707 
     80 H80        28.5121  -41.7272  -56.6718 H         1 UNK         0.0707 
     81 H81        25.7302  -41.0851  -55.9063 H         1 UNK         0.1034 
     82 H82        24.6048  -42.3979  -55.8453 H         1 UNK         0.1034 
     83 H83        24.3391  -41.4338  -57.9945 H         1 UNK         0.0482 
     84 H84        26.3396  -42.2622  -60.3011 H         1 UNK         0.3460 
     85 H85        27.3843  -40.8682  -60.3104 H         1 UNK         0.3460 
     86 H86        25.9121  -43.7435  -58.8335 H         1 UNK         0.2989 
     87 H87        23.3736  -46.0626  -58.5719 H         1 UNK         0.0559 
     88 H88        23.8877  -44.6594  -61.2518 H         1 UNK         0.0848 
     89 H89        22.3124  -44.9558  -60.5319 H         1 UNK         0.0848 
     90 H90        23.3003  -46.3107  -61.0477 H         1 UNK         0.0848 
     91 H91        25.7908  -45.8204  -60.1908 H         1 UNK         0.3144 
     92 H92        27.5560  -47.1199  -59.6481 H         1 UNK         0.0727 
     93 H93        28.0633  -44.7807  -58.8181 H         1 UNK         0.0790 
     94 H94        29.4068  -45.8857  -58.5986 H         1 UNK         0.0790 
     95 H95        28.3964  -45.4467  -57.2234 H         1 UNK         0.0790 
     96 H96        27.9896  -47.8115  -56.7736 H         1 UNK         0.3215 
     97 H97        27.7312  -51.2511  -57.4003 H         1 UNK         0.0863 
     98 H98        30.4304  -49.8402  -57.0318 H         1 UNK         0.0808 
     99 H99        30.0590  -51.0477  -58.2540 H         1 UNK         0.0808 
    100 H100       30.0726  -51.4997  -56.5560 H         1 UNK         0.0808 
    101 H101       28.7700  -49.7721  -55.1676 H         1 UNK         0.3118 
    102 H102       25.8220  -48.4500  -53.9444 H         1 UNK         0.0546 
    103 H103       26.6832  -51.1759  -52.8294 H         1 UNK         0.0828 
    104 H104       25.0567  -50.7543  -53.3444 H         1 UNK         0.0828 
    105 H105       25.7648  -49.9457  -51.9586 H         1 UNK         0.0828 
    106 H106       28.1275  -49.1972  -52.4664 H         1 UNK         0.3005 
    107 H107       30.4639  -46.9264  -53.7314 H         1 UNK         0.1257 
    108 H108       28.9787  -46.6778  -51.0561 H         1 UNK         0.0775 
    109 H109       28.9403  -45.4395  -52.2783 H         1 UNK         0.0775 
    110 H110       30.3106  -43.3194  -51.2712 H         1 UNK         0.0840 
    111 H111       32.0264  -43.3825  -51.5887 H         1 UNK         0.0840 
    112 H112       30.7338  -48.4629  -51.4499 H         1 UNK         0.2987 
    113 H113       30.9268  -50.8726  -51.3584 H         1 UNK         0.0785 
    114 H114       30.3477  -52.3903  -53.2520 H         1 UNK         0.0798 
    115 H115       31.8187  -52.9128  -52.4455 H         1 UNK         0.0798 
    116 H116       31.9109  -52.0840  -53.9979 H         1 UNK         0.0798 
    117 H117       33.4850  -50.6066  -52.8660 H         1 UNK         0.3079 
    118 H118       35.1084  -49.1873  -49.9693 H         1 UNK         0.0794 
    119 H119       35.2582  -51.6744  -49.9474 H         1 UNK         0.0786 
    120 H120       36.6796  -50.9620  -50.6938 H         1 UNK         0.0786 
    121 H121       35.4348  -51.7013  -51.6975 H         1 UNK         0.0786 
    122 H122       35.2570  -49.4797  -52.9492 H         1 UNK         0.3032 
    123 H123       35.6654  -46.0405  -53.3708 H         1 UNK         0.1094 
    124 H124       38.0663  -46.5341  -52.8564 H         1 UNK         0.0794 
    125 H125       37.9624  -48.0418  -53.7544 H         1 UNK         0.0794 
    126 H126       37.7850  -46.4963  -54.5882 H         1 UNK         0.0794 
    127 H127       35.9652  -48.1585  -55.2434 H         1 UNK         0.3016 
@<TRIPOS>BOND
     1    1    2 1    
     2    1   67 1    
     3    1   68 1    
     4    1   69 1    
     5    2    3 2    
     6    2    4 am   BACKBONE|DICT|INTERRES
     7    4    5 1    
     8    4   70 1    
     9    5    6 1    
    10    5   65 1    
    11    5   71 1    
    12    6    7 1    
    13    6   72 1    
    14    6   73 1    
    15    7    8 1    
    16    8    9 1    
    17    8   74 1    
    18    8   75 1    
    19    9   10 ar   
    20    9   14 ar   
    21   10   11 ar   
    22   10   76 1    
    23   11   12 ar   
    24   11   48 1    
    25   12   13 ar   
    26   12   77 1    
    27   13   14 ar   
    28   13   15 1    
    29   14   78 1    
    30   15   16 1    
    31   15   79 1    
    32   15   80 1    
    33   16   17 1    
    34   17   18 1    
    35   17   81 1    
    36   17   82 1    
    37   18   19 1    
    38   18   22 1    
    39   18   83 1    
    40   19   20 am   BACKBONE|DICT|INTERRES
    41   19   21 2    
    42   20   84 1    
    43   20   85 1    
    44   22   23 am   BACKBONE|DICT|INTERRES
    45   22   86 1    
    46   23   24 2    
    47   23   25 1    
    48   25   26 1    
    49   25   27 1    
    50   25   87 1    
    51   26   88 1    
    52   26   89 1    
    53   26   90 1    
    54   27   28 am   BACKBONE|DICT|INTERRES
    55   27   91 1    
    56   28   29 2    
    57   28   30 1    
    58   30   31 1    
    59   30   32 1    
    60   30   92 1    
    61   31   93 1    
    62   31   94 1    
    63   31   95 1    
    64   32   33 am   BACKBONE|DICT|INTERRES
    65   32   96 1    
    66   33   34 2    
    67   33   35 1    
    68   35   36 1    
    69   35   37 1    
    70   35   97 1    
    71   36   98 1    
    72   36   99 1    
    73   36  100 1    
    74   37   38 am   BACKBONE|DICT|INTERRES
    75   37  101 1    
    76   38   39 2    
    77   38   40 1    
    78   40   41 1    
    79   40   42 1    
    80   40  102 1    
    81   41  103 1    
    82   41  104 1    
    83   41  105 1    
    84   42   43 am   BACKBONE|DICT|INTERRES
    85   42  106 1    
    86   43   44 2    
    87   43   45 1    
    88   45   46 1    
    89   45   49 1    
    90   45  107 1    
    91   46   47 1    
    92   46  108 1    
    93   46  109 1    
    94   47   48 1    
    95   48  110 1    
    96   48  111 1    
    97   49   50 am   BACKBONE|DICT|INTERRES
    98   49  112 1    
    99   50   51 2    
   100   50   52 1    
   101   52   53 1    
   102   52   54 1    
   103   52  113 1    
   104   53  114 1    
   105   53  115 1    
   106   53  116 1    
   107   54   55 am   BACKBONE|DICT|INTERRES
   108   54  117 1    
   109   55   56 2    
   110   55   57 1    
   111   57   58 1    
   112   57   59 1    
   113   57  118 1    
   114   58  119 1    
   115   58  120 1    
   116   58  121 1    
   117   59   60 am   BACKBONE|DICT|INTERRES
   118   59  122 1    
   119   60   61 2    
   120   60   62 1    
   121   62   63 1    
   122   62   64 1    
   123   62  123 1    
   124   63  124 1    
   125   63  125 1    
   126   63  126 1    
   127   64   65 am   BACKBONE|DICT|INTERRES
   128   64  127 1    
   129   65   66 2    
@<TRIPOS>SUBSTRUCTURE
     1 UNK         1 GROUP             0       ****    0 ROOT    
