@<TRIPOS>MOLECULE
3R134
127   129    1
SMALL
USER_CHARGES


@<TRIPOS>ATOM
      1 CA         33.8388  -44.9088  -49.1950 C.3       0 UNK        -0.1968 
      2 C          34.9126  -45.5343  -50.0735 C.2       0 UNK         0.4852 
      3 O          35.9200  -46.0212  -49.5570 O.2       0 UNK        -0.5359 
      4 N          34.7073  -45.5172  -51.3960 N.am      1 UNK        -0.4300 
      5 CA         35.5778  -46.1457  -52.3925 C.3       1 UNK         0.0863 
      6 C6         35.3475  -45.5653  -53.8134 C.3       11 UNK        -0.0953 
      7 S7         33.5982  -45.5331  -54.3500 S.3       11 UNK        -0.2369 
      8 C8         33.3044  -43.7387  -54.3398 C.3       11 UNK         0.0226 
      9 C9         31.8626  -43.3982  -54.6769 C.ar      11 UNK        -0.0699 
     10 C10        30.9052  -43.3127  -53.6613 C.ar      11 UNK        -0.0804 
     11 C11        29.5876  -42.9517  -53.9589 C.ar      11 UNK        -0.0871 
     12 C12        29.2297  -42.6843  -55.2833 C.ar      11 UNK        -0.1008 
     13 C13        30.1784  -42.7683  -56.3063 C.ar      11 UNK        -0.0735 
     14 C14        31.4935  -43.1288  -55.9985 C.ar      11 UNK        -0.0945 
     15 C15        29.7818  -42.4511  -57.7387 C.3       11 UNK         0.0169 
     16 S16        29.4003  -43.9711  -58.6550 S.3       11 UNK        -0.2669 
     17 C17        28.3098  -43.3224  -59.9679 C.3       11 UNK        -0.0850 
     18 CA         26.8110  -43.3595  -59.5649 C.3       10 UNK         0.0855 
     19 C          25.9141  -42.7333  -60.6715 C.2       10 UNK         0.5543 
     20 N          24.9660  -43.4589  -61.2519 N.am      10 UNK        -0.7343 
     21 O          26.0790  -41.5622  -61.0041 O.2       10 UNK        -0.5027 
     22 N          26.4054  -44.7057  -59.1332 N.am      10 UNK        -0.4495 
     23 C          25.4018  -44.9956  -58.3014 C.2       10 UNK         0.4903 
     24 O          24.6428  -44.1498  -57.8274 O.2       10 UNK        -0.4860 
     25 CA         25.2123  -46.4736  -57.9095 C.3       9 UNK         0.0227 
     26 CB         24.2589  -47.1896  -58.8854 C.3       9 UNK        -0.1964 
     27 N          26.4573  -47.2352  -57.7162 N.am      9 UNK        -0.4231 
     28 C          27.3820  -47.5982  -58.6201 C.2       9 UNK         0.5014 
     29 O          27.3388  -47.2877  -59.8116 O.2       9 UNK        -0.5270 
     30 CA         28.5628  -48.4450  -58.1155 C.3       8 UNK         0.0284 
     31 CB         29.7017  -47.5464  -57.6068 C.3       8 UNK        -0.1977 
     32 N          28.1884  -49.3910  -57.0641 N.am      8 UNK        -0.4342 
     33 C          27.3914  -50.4558  -57.2312 C.2       8 UNK         0.5039 
     34 O          26.8826  -50.7727  -58.3072 O.2       8 UNK        -0.5547 
     35 CA         27.1091  -51.3101  -55.9871 C.3       7 UNK         0.0281 
     36 CB         28.2725  -52.2750  -55.7105 C.3       7 UNK        -0.1963 
     37 N          26.8762  -50.4713  -54.8108 N.am      7 UNK        -0.4444 
     38 C          25.6715  -50.0207  -54.4362 C.2       7 UNK         0.5104 
     39 O          24.6221  -50.3102  -55.0119 O.2       7 UNK        -0.5100 
     40 CA         25.6137  -49.0946  -53.2066 C.3       6 UNK         0.0396 
     41 CB         25.2955  -49.9071  -51.9413 C.3       6 UNK        -0.1801 
     42 N          26.8334  -48.3135  -52.9818 N.am      6 UNK        -0.4747 
     43 C          27.2868  -47.3521  -53.7999 C.2       6 UNK         0.5012 
     44 O          26.7474  -47.0507  -54.8649 O.2       6 UNK        -0.5003 
     45 CA         28.6006  -46.6540  -53.3797 C.3       5 UNK         0.0782 
     46 C46        28.3507  -45.5824  -52.2876 C.3       11 UNK        -0.0868 
     47 S47        27.3469  -44.1699  -52.8626 S.3       11 UNK        -0.2515 
     48 C48        28.5555  -42.8103  -52.8500 C.3       11 UNK         0.0199 
     49 N          29.6479  -47.5949  -52.9499 N.am      5 UNK        -0.4607 
     50 C          30.0662  -48.6778  -53.6195 C.2       4 UNK         0.5031 
     51 O          29.5544  -49.0676  -54.6679 O.2       4 UNK        -0.5119 
     52 CA         31.2080  -49.4810  -52.9769 C.3       4 UNK         0.0263 
     53 CB         30.7306  -50.8757  -52.5264 C.3       4 UNK        -0.1967 
     54 N          32.3931  -49.5572  -53.8392 N.am      4 UNK        -0.4237 
     55 C          32.5533  -50.1910  -55.0151 C.2       3 UNK         0.4908 
     56 O          31.7104  -50.9112  -55.5482 O.2       3 UNK        -0.5102 
     57 CA         33.9046  -50.0057  -55.7331 C.3       3 UNK         0.0241 
     58 CB         33.7823  -48.9285  -56.8242 C.3       3 UNK        -0.1971 
     59 N          35.0037  -49.6529  -54.8323 N.am      3 UNK        -0.4139 
     60 C          35.5289  -50.4637  -53.9023 C.2       2 UNK         0.5016 
     61 O          35.2237  -51.6501  -53.7765 O.2       2 UNK        -0.5319 
     62 CA         36.5508  -49.8433  -52.9293 C.3       2 UNK         0.0286 
     63 CB         37.9806  -50.2541  -53.3181 C.3       2 UNK        -0.1963 
     64 N          36.4836  -48.3784  -52.8271 N.am      2 UNK        -0.4790 
     65 C          35.4292  -47.6800  -52.3799 C.2       1 UNK         0.5024 
     66 O          34.3657  -48.1990  -52.0304 O.2       1 UNK        -0.4888 
     67 H67        34.2638  -44.0999  -48.6013 H         1 UNK         0.0892 
     68 H68        33.4313  -45.6548  -48.5132 H         1 UNK         0.0892 
     69 H69        33.0163  -44.5015  -49.7827 H         1 UNK         0.0892 
     70 H70        33.8425  -45.1479  -51.7626 H         1 UNK         0.3107 
     71 H71        36.6096  -45.9225  -52.1114 H         1 UNK         0.0773 
     72 H72        35.7478  -44.5509  -53.8463 H         1 UNK         0.0680 
     73 H73        35.9237  -46.1156  -54.5595 H         1 UNK         0.0680 
     74 H74        33.5606  -43.3330  -53.3599 H         1 UNK         0.0650 
     75 H75        33.9770  -43.2615  -55.0545 H         1 UNK         0.0650 
     76 H76        31.1917  -43.5114  -52.6378 H         1 UNK         0.1397 
     77 H77        28.2108  -42.4049  -55.5158 H         1 UNK         0.1363 
     78 H78        32.2304  -43.1923  -56.7876 H         1 UNK         0.1355 
     79 H79        30.5849  -41.9135  -58.2450 H         1 UNK         0.0707 
     80 H80        28.9147  -41.7886  -57.7445 H         1 UNK         0.0707 
     81 H81        28.4722  -43.9198  -60.8670 H         1 UNK         0.1034 
     82 H82        28.6212  -42.3072  -60.2220 H         1 UNK         0.1034 
     83 H83        26.6987  -42.7028  -58.7001 H         1 UNK         0.0482 
     84 H84        24.3878  -43.0424  -61.9648 H         1 UNK         0.3460 
     85 H85        24.8255  -44.4186  -60.9805 H         1 UNK         0.3460 
     86 H86        26.9485  -45.4832  -59.4985 H         1 UNK         0.2989 
     87 H87        24.7304  -46.4706  -56.9305 H         1 UNK         0.0559 
     88 H88        24.0613  -48.2127  -58.5650 H         1 UNK         0.0848 
     89 H89        24.6616  -47.2280  -59.8979 H         1 UNK         0.0848 
     90 H90        23.2986  -46.6750  -58.9385 H         1 UNK         0.0848 
     91 H91        26.6507  -47.4565  -56.7419 H         1 UNK         0.3144 
     92 H92        28.9395  -49.0247  -58.9607 H         1 UNK         0.0727 
     93 H93        29.3769  -46.9071  -56.7846 H         1 UNK         0.0790 
     94 H94        30.0684  -46.8972  -58.4023 H         1 UNK         0.0790 
     95 H95        30.5483  -48.1370  -57.2555 H         1 UNK         0.0790 
     96 H96        28.6227  -49.2464  -56.1516 H         1 UNK         0.3215 
     97 H97        26.2203  -51.9123  -56.1894 H         1 UNK         0.0863 
     98 H98        28.0643  -52.9133  -54.8519 H         1 UNK         0.0808 
     99 H99        29.2015  -51.7403  -55.5137 H         1 UNK         0.0808 
    100 H100       28.4489  -52.9276  -56.5665 H         1 UNK         0.0808 
    101 H101       27.6962  -50.1272  -54.3267 H         1 UNK         0.3118 
    102 H102       24.7962  -48.3892  -53.3705 H         1 UNK         0.0546 
    103 H103       26.0893  -50.6174  -51.7064 H         1 UNK         0.0828 
    104 H104       24.3745  -50.4786  -52.0661 H         1 UNK         0.0828 
    105 H105       25.1559  -49.2587  -51.0762 H         1 UNK         0.0828 
    106 H106       27.3551  -48.5128  -52.1403 H         1 UNK         0.3005 
    107 H107       28.9884  -46.1488  -54.2678 H         1 UNK         0.1257 
    108 H108       29.3037  -45.2018  -51.9181 H         1 UNK         0.0775 
    109 H109       27.8570  -46.0223  -51.4190 H         1 UNK         0.0775 
    110 H110       28.0216  -41.8674  -52.9780 H         1 UNK         0.0840 
    111 H111       29.0339  -42.7538  -51.8709 H         1 UNK         0.0840 
    112 H112       30.1123  -47.3632  -52.0841 H         1 UNK         0.2987 
    113 H113       31.5374  -48.9481  -52.0834 H         1 UNK         0.0785 
    114 H114       30.3541  -51.4701  -53.3587 H         1 UNK         0.0798 
    115 H115       29.9225  -50.7935  -51.7986 H         1 UNK         0.0798 
    116 H116       31.5378  -51.4359  -52.0544 H         1 UNK         0.0798 
    117 H117       33.1800  -49.0180  -53.4940 H         1 UNK         0.3079 
    118 H118       34.1542  -50.9546  -56.2128 H         1 UNK         0.0794 
    119 H119       33.5354  -47.9527  -56.4037 H         1 UNK         0.0786 
    120 H120       32.9954  -49.1834  -57.5357 H         1 UNK         0.0786 
    121 H121       34.7083  -48.8276  -57.3905 H         1 UNK         0.0786 
    122 H122       35.3357  -48.7007  -54.8701 H         1 UNK         0.3032 
    123 H123       36.3325  -50.2529  -51.9403 H         1 UNK         0.1094 
    124 H124       38.7080  -49.9078  -52.5836 H         1 UNK         0.0794 
    125 H125       38.0737  -51.3399  -53.3739 H         1 UNK         0.0794 
    126 H126       38.2661  -49.8528  -54.2914 H         1 UNK         0.0794 
    127 H127       37.3148  -47.8745  -53.1045 H         1 UNK         0.3016 
@<TRIPOS>BOND
     1    1    2 1    
     2    1   67 1    
     3    1   68 1    
     4    1   69 1    
     5    2    3 2    
     6    2    4 am   BACKBONE|DICT|INTERRES
     7    4    5 1    
     8    4   70 1    
     9    5    6 1    
    10    5   65 1    
    11    5   71 1    
    12    6    7 1    
    13    6   72 1    
    14    6   73 1    
    15    7    8 1    
    16    8    9 1    
    17    8   74 1    
    18    8   75 1    
    19    9   10 ar   
    20    9   14 ar   
    21   10   11 ar   
    22   10   76 1    
    23   11   12 ar   
    24   11   48 1    
    25   12   13 ar   
    26   12   77 1    
    27   13   14 ar   
    28   13   15 1    
    29   14   78 1    
    30   15   16 1    
    31   15   79 1    
    32   15   80 1    
    33   16   17 1    
    34   17   18 1    
    35   17   81 1    
    36   17   82 1    
    37   18   19 1    
    38   18   22 1    
    39   18   83 1    
    40   19   20 am   BACKBONE|DICT|INTERRES
    41   19   21 2    
    42   20   84 1    
    43   20   85 1    
    44   22   23 am   BACKBONE|DICT|INTERRES
    45   22   86 1    
    46   23   24 2    
    47   23   25 1    
    48   25   26 1    
    49   25   27 1    
    50   25   87 1    
    51   26   88 1    
    52   26   89 1    
    53   26   90 1    
    54   27   28 am   BACKBONE|DICT|INTERRES
    55   27   91 1    
    56   28   29 2    
    57   28   30 1    
    58   30   31 1    
    59   30   32 1    
    60   30   92 1    
    61   31   93 1    
    62   31   94 1    
    63   31   95 1    
    64   32   33 am   BACKBONE|DICT|INTERRES
    65   32   96 1    
    66   33   34 2    
    67   33   35 1    
    68   35   36 1    
    69   35   37 1    
    70   35   97 1    
    71   36   98 1    
    72   36   99 1    
    73   36  100 1    
    74   37   38 am   BACKBONE|DICT|INTERRES
    75   37  101 1    
    76   38   39 2    
    77   38   40 1    
    78   40   41 1    
    79   40   42 1    
    80   40  102 1    
    81   41  103 1    
    82   41  104 1    
    83   41  105 1    
    84   42   43 am   BACKBONE|DICT|INTERRES
    85   42  106 1    
    86   43   44 2    
    87   43   45 1    
    88   45   46 1    
    89   45   49 1    
    90   45  107 1    
    91   46   47 1    
    92   46  108 1    
    93   46  109 1    
    94   47   48 1    
    95   48  110 1    
    96   48  111 1    
    97   49   50 am   BACKBONE|DICT|INTERRES
    98   49  112 1    
    99   50   51 2    
   100   50   52 1    
   101   52   53 1    
   102   52   54 1    
   103   52  113 1    
   104   53  114 1    
   105   53  115 1    
   106   53  116 1    
   107   54   55 am   BACKBONE|DICT|INTERRES
   108   54  117 1    
   109   55   56 2    
   110   55   57 1    
   111   57   58 1    
   112   57   59 1    
   113   57  118 1    
   114   58  119 1    
   115   58  120 1    
   116   58  121 1    
   117   59   60 am   BACKBONE|DICT|INTERRES
   118   59  122 1    
   119   60   61 2    
   120   60   62 1    
   121   62   63 1    
   122   62   64 1    
   123   62  123 1    
   124   63  124 1    
   125   63  125 1    
   126   63  126 1    
   127   64   65 am   BACKBONE|DICT|INTERRES
   128   64  127 1    
   129   65   66 2    
@<TRIPOS>SUBSTRUCTURE
     1 UNK         1 GROUP             0       ****    0 ROOT    
