@<TRIPOS>MOLECULE
3R134
127   129    1
SMALL
USER_CHARGES


@<TRIPOS>ATOM
      1 CA         26.8416  -47.3881  -52.0487 C.3       0 UNK        -0.1968 
      2 C          28.3211  -47.2156  -51.7424 C.2       0 UNK         0.4852 
      3 O          28.7258  -47.3647  -50.5874 O.2       0 UNK        -0.5359 
      4 N          29.1366  -46.9082  -52.7593 N.am      1 UNK        -0.4300 
      5 CA         30.5891  -46.7348  -52.6559 C.3       1 UNK         0.0863 
      6 C6         31.1438  -45.8799  -53.8207 C.3       11 UNK        -0.0953 
      7 S7         30.5667  -44.1555  -53.7357 S.3       11 UNK        -0.2369 
      8 C8         31.7900  -43.3230  -54.7926 C.3       11 UNK         0.0226 
      9 C9         31.5870  -43.6604  -56.2622 C.ar      11 UNK        -0.0699 
     10 C10        32.2474  -44.7506  -56.8355 C.ar      11 UNK        -0.0804 
     11 C11        32.0689  -45.0597  -58.1872 C.ar      11 UNK        -0.0871 
     12 C12        31.2311  -44.2586  -58.9697 C.ar      11 UNK        -0.1008 
     13 C13        30.5691  -43.1623  -58.4084 C.ar      11 UNK        -0.0735 
     14 C14        30.7495  -42.8701  -57.0534 C.ar      11 UNK        -0.0945 
     15 C15        29.6687  -42.2906  -59.2691 C.3       11 UNK         0.0169 
     16 S16        27.9541  -42.8944  -59.2280 S.3       11 UNK        -0.2669 
     17 C17        27.0613  -41.4537  -58.5486 C.3       11 UNK        -0.0850 
     18 CA         27.1691  -41.3046  -57.0064 C.3       10 UNK         0.0855 
     19 C          26.3562  -40.0652  -56.5276 C.2       10 UNK         0.5543 
     20 N          25.2831  -40.2261  -55.7631 N.am      10 UNK        -0.7343 
     21 O          26.7089  -38.9366  -56.8605 O.2       10 UNK        -0.5027 
     22 N          26.8718  -42.5672  -56.3067 N.am      10 UNK        -0.4495 
     23 C          27.1427  -42.8221  -55.0183 C.2       10 UNK         0.4903 
     24 O          27.6804  -42.0111  -54.2644 O.2       10 UNK        -0.4860 
     25 CA         26.7296  -44.1968  -54.4590 C.3       9 UNK         0.0227 
     26 CB         25.5722  -44.0324  -53.4584 C.3       9 UNK        -0.1964 
     27 N          26.3131  -45.1289  -55.5122 N.am      9 UNK        -0.4231 
     28 C          26.9912  -46.2176  -55.8923 C.2       9 UNK         0.5014 
     29 O          28.0375  -46.6133  -55.3695 O.2       9 UNK        -0.5270 
     30 CA         26.3938  -46.9993  -57.0658 C.3       8 UNK         0.0284 
     31 CB         27.0549  -46.5735  -58.3868 C.3       8 UNK        -0.1977 
     32 N          26.6326  -48.4217  -56.8466 N.am      8 UNK        -0.4342 
     33 C          25.6897  -49.3698  -56.7938 C.2       8 UNK         0.5039 
     34 O          24.4912  -49.1545  -56.9813 O.2       8 UNK        -0.5547 
     35 CA         26.1470  -50.8093  -56.4952 C.3       7 UNK         0.0281 
     36 CB         26.0363  -51.6809  -57.7574 C.3       7 UNK        -0.1963 
     37 N          27.5174  -50.8928  -55.9872 N.am      7 UNK        -0.4444 
     38 C          27.9065  -50.6094  -54.7408 C.2       7 UNK         0.5104 
     39 O          27.1360  -50.2444  -53.8540 O.2       7 UNK        -0.5100 
     40 CA         29.4077  -50.7473  -54.4265 C.3       6 UNK         0.0396 
     41 CB         29.8045  -52.2230  -54.2362 C.3       6 UNK        -0.1801 
     42 N          30.3200  -50.0679  -55.3618 N.am      6 UNK        -0.4747 
     43 C          30.5146  -50.2948  -56.6695 C.2       6 UNK         0.5012 
     44 O          29.9098  -51.1538  -57.3129 O.2       6 UNK        -0.5003 
     45 CA         31.5373  -49.4041  -57.4026 C.3       5 UNK         0.0782 
     46 C46        30.8424  -48.1514  -57.9965 C.3       11 UNK        -0.0868 
     47 S47        31.7068  -47.5190  -59.4728 S.3       11 UNK        -0.2515 
     48 C48        32.8139  -46.2334  -58.8084 C.3       11 UNK         0.0199 
     49 N          32.6993  -49.0400  -56.5822 N.am      5 UNK        -0.4607 
     50 C          33.6293  -49.8936  -56.1327 C.2       4 UNK         0.5031 
     51 O          33.5659  -51.1145  -56.2766 O.2       4 UNK        -0.5119 
     52 CA         34.8600  -49.2878  -55.4420 C.3       4 UNK         0.0263 
     53 CB         35.2064  -47.8585  -55.9087 C.3       4 UNK        -0.1967 
     54 N          34.6788  -49.2987  -53.9935 N.am      4 UNK        -0.4237 
     55 C          35.6561  -49.5384  -53.1068 C.2       3 UNK         0.4908 
     56 O          36.8106  -49.8227  -53.4303 O.2       3 UNK        -0.5102 
     57 CA         35.3276  -49.4188  -51.6042 C.3       3 UNK         0.0241 
     58 CB         35.9804  -48.1574  -51.0133 C.3       3 UNK        -0.1971 
     59 N          33.8952  -49.3875  -51.3073 N.am      3 UNK        -0.4139 
     60 C          33.0717  -50.4400  -51.3853 C.2       2 UNK         0.5016 
     61 O          33.4459  -51.5847  -51.6412 O.2       2 UNK        -0.5319 
     62 CA         31.5724  -50.1709  -51.1618 C.3       2 UNK         0.0286 
     63 CB         31.1697  -50.5467  -49.7271 C.3       2 UNK        -0.1963 
     64 N          31.1214  -48.7974  -51.4372 N.am      2 UNK        -0.4790 
     65 C          31.2793  -48.1105  -52.5779 C.2       1 UNK         0.5024 
     66 O          31.9115  -48.5371  -53.5461 O.2       1 UNK        -0.4888 
     67 H67        26.6275  -47.2711  -53.1098 H         1 UNK         0.0892 
     68 H68        26.5134  -48.3834  -51.7504 H         1 UNK         0.0892 
     69 H69        26.2557  -46.6550  -51.4957 H         1 UNK         0.0892 
     70 H70        28.7530  -46.8012  -53.6988 H         1 UNK         0.3107 
     71 H71        30.8156  -46.2119  -51.7240 H         1 UNK         0.0773 
     72 H72        32.2353  -45.8705  -53.7989 H         1 UNK         0.0680 
     73 H73        30.8513  -46.3010  -54.7846 H         1 UNK         0.0680 
     74 H74        32.7985  -43.5895  -54.4728 H         1 UNK         0.0650 
     75 H75        31.7004  -42.2457  -54.6453 H         1 UNK         0.0650 
     76 H76        32.9043  -45.3530  -56.2252 H         1 UNK         0.1397 
     77 H77        31.0944  -44.4907  -60.0172 H         1 UNK         0.1363 
     78 H78        30.2420  -42.0258  -56.6101 H         1 UNK         0.1355 
     79 H79        29.7230  -41.2542  -58.9328 H         1 UNK         0.0707 
     80 H80        30.0193  -42.2921  -60.3023 H         1 UNK         0.0707 
     81 H81        27.4190  -40.5515  -59.0491 H         1 UNK         0.1034 
     82 H82        26.0139  -41.5547  -58.8396 H         1 UNK         0.1034 
     83 H83        28.2082  -41.0655  -56.7799 H         1 UNK         0.0482 
     84 H84        24.9903  -41.1476  -55.4827 H         1 UNK         0.3460 
     85 H85        24.7667  -39.4160  -55.4583 H         1 UNK         0.3460 
     86 H86        26.4693  -43.2938  -56.8765 H         1 UNK         0.2989 
     87 H87        27.5891  -44.5964  -53.9184 H         1 UNK         0.0559 
     88 H88        24.6973  -43.5740  -53.9210 H         1 UNK         0.0848 
     89 H89        25.8674  -43.3987  -52.6209 H         1 UNK         0.0848 
     90 H90        25.2635  -44.9913  -53.0436 H         1 UNK         0.0848 
     91 H91        25.4423  -44.9174  -55.9793 H         1 UNK         0.3144 
     92 H92        25.3226  -46.7948  -57.1238 H         1 UNK         0.0727 
     93 H93        26.7909  -45.5462  -58.6361 H         1 UNK         0.0790 
     94 H94        26.7273  -47.1998  -59.2167 H         1 UNK         0.0790 
     95 H95        28.1433  -46.6250  -58.3356 H         1 UNK         0.0790 
     96 H96        27.5772  -48.6661  -56.5856 H         1 UNK         0.3215 
     97 H97        25.4721  -51.2137  -55.7376 H         1 UNK         0.0863 
     98 H98        26.6982  -51.3287  -58.5497 H         1 UNK         0.0808 
     99 H99        25.0195  -51.6711  -58.1526 H         1 UNK         0.0808 
    100 H100       26.2894  -52.7199  -57.5454 H         1 UNK         0.0808 
    101 H101       28.2475  -51.1604  -56.6463 H         1 UNK         0.3118 
    102 H102       29.5485  -50.2478  -53.4698 H         1 UNK         0.0546 
    103 H103       29.6789  -52.8019  -55.1516 H         1 UNK         0.0828 
    104 H104       29.1917  -52.6954  -53.4673 H         1 UNK         0.0828 
    105 H105       30.8452  -52.3156  -53.9249 H         1 UNK         0.0828 
    106 H106       30.9052  -49.3580  -54.9287 H         1 UNK         0.3005 
    107 H107       31.9094  -50.0152  -58.2288 H         1 UNK         0.1257 
    108 H108       30.7232  -47.3650  -57.2489 H         1 UNK         0.0775 
    109 H109       29.8315  -48.3910  -58.3330 H         1 UNK         0.0775 
    110 H110       33.4990  -46.6868  -58.0937 H         1 UNK         0.0840 
    111 H111       33.4361  -45.8588  -59.6224 H         1 UNK         0.0840 
    112 H112       32.8186  -48.0587  -56.3887 H         1 UNK         0.2987 
    113 H113       35.6973  -49.9356  -55.7112 H         1 UNK         0.0785 
    114 H114       35.2967  -47.8106  -56.9944 H         1 UNK         0.0798 
    115 H115       36.1646  -47.5393  -55.4982 H         1 UNK         0.0798 
    116 H116       34.4600  -47.1294  -55.5935 H         1 UNK         0.0798 
    117 H117       33.7356  -49.1059  -53.6655 H         1 UNK         0.3079 
    118 H118       35.7598  -50.2910  -51.1090 H         1 UNK         0.0794 
    119 H119       37.0591  -48.1618  -51.1763 H         1 UNK         0.0786 
    120 H120       35.8190  -48.0930  -49.9370 H         1 UNK         0.0786 
    121 H121       35.5865  -47.2477  -51.4687 H         1 UNK         0.0786 
    122 H122       33.4938  -48.4894  -51.0812 H         1 UNK         0.3032 
    123 H123       31.0392  -50.8346  -51.8427 H         1 UNK         0.1094 
    124 H124       31.4614  -51.5718  -49.4930 H         1 UNK         0.0794 
    125 H125       31.6447  -49.8959  -48.9919 H         1 UNK         0.0794 
    126 H126       30.0904  -50.4801  -49.5874 H         1 UNK         0.0794 
    127 H127       30.5139  -48.3758  -50.7406 H         1 UNK         0.3016 
@<TRIPOS>BOND
     1    1    2 1    
     2    1   67 1    
     3    1   68 1    
     4    1   69 1    
     5    2    3 2    
     6    2    4 am   BACKBONE|DICT|INTERRES
     7    4    5 1    
     8    4   70 1    
     9    5    6 1    
    10    5   65 1    
    11    5   71 1    
    12    6    7 1    
    13    6   72 1    
    14    6   73 1    
    15    7    8 1    
    16    8    9 1    
    17    8   74 1    
    18    8   75 1    
    19    9   10 ar   
    20    9   14 ar   
    21   10   11 ar   
    22   10   76 1    
    23   11   12 ar   
    24   11   48 1    
    25   12   13 ar   
    26   12   77 1    
    27   13   14 ar   
    28   13   15 1    
    29   14   78 1    
    30   15   16 1    
    31   15   79 1    
    32   15   80 1    
    33   16   17 1    
    34   17   18 1    
    35   17   81 1    
    36   17   82 1    
    37   18   19 1    
    38   18   22 1    
    39   18   83 1    
    40   19   20 am   BACKBONE|DICT|INTERRES
    41   19   21 2    
    42   20   84 1    
    43   20   85 1    
    44   22   23 am   BACKBONE|DICT|INTERRES
    45   22   86 1    
    46   23   24 2    
    47   23   25 1    
    48   25   26 1    
    49   25   27 1    
    50   25   87 1    
    51   26   88 1    
    52   26   89 1    
    53   26   90 1    
    54   27   28 am   BACKBONE|DICT|INTERRES
    55   27   91 1    
    56   28   29 2    
    57   28   30 1    
    58   30   31 1    
    59   30   32 1    
    60   30   92 1    
    61   31   93 1    
    62   31   94 1    
    63   31   95 1    
    64   32   33 am   BACKBONE|DICT|INTERRES
    65   32   96 1    
    66   33   34 2    
    67   33   35 1    
    68   35   36 1    
    69   35   37 1    
    70   35   97 1    
    71   36   98 1    
    72   36   99 1    
    73   36  100 1    
    74   37   38 am   BACKBONE|DICT|INTERRES
    75   37  101 1    
    76   38   39 2    
    77   38   40 1    
    78   40   41 1    
    79   40   42 1    
    80   40  102 1    
    81   41  103 1    
    82   41  104 1    
    83   41  105 1    
    84   42   43 am   BACKBONE|DICT|INTERRES
    85   42  106 1    
    86   43   44 2    
    87   43   45 1    
    88   45   46 1    
    89   45   49 1    
    90   45  107 1    
    91   46   47 1    
    92   46  108 1    
    93   46  109 1    
    94   47   48 1    
    95   48  110 1    
    96   48  111 1    
    97   49   50 am   BACKBONE|DICT|INTERRES
    98   49  112 1    
    99   50   51 2    
   100   50   52 1    
   101   52   53 1    
   102   52   54 1    
   103   52  113 1    
   104   53  114 1    
   105   53  115 1    
   106   53  116 1    
   107   54   55 am   BACKBONE|DICT|INTERRES
   108   54  117 1    
   109   55   56 2    
   110   55   57 1    
   111   57   58 1    
   112   57   59 1    
   113   57  118 1    
   114   58  119 1    
   115   58  120 1    
   116   58  121 1    
   117   59   60 am   BACKBONE|DICT|INTERRES
   118   59  122 1    
   119   60   61 2    
   120   60   62 1    
   121   62   63 1    
   122   62   64 1    
   123   62  123 1    
   124   63  124 1    
   125   63  125 1    
   126   63  126 1    
   127   64   65 am   BACKBONE|DICT|INTERRES
   128   64  127 1    
   129   65   66 2    
@<TRIPOS>SUBSTRUCTURE
     1 UNK         1 GROUP             0       ****    0 ROOT    
