@<TRIPOS>MOLECULE
3R134
127   129    1
SMALL
USER_CHARGES


@<TRIPOS>ATOM
      1 CA         29.4559  -44.1342  -49.7172 C.3       0 UNK        -0.1968 
      2 C          30.9170  -44.5412  -49.6020 C.2       0 UNK         0.4852 
      3 O          31.4074  -44.7485  -48.4913 O.2       0 UNK        -0.5359 
      4 N          31.6150  -44.6579  -50.7399 N.am      1 UNK        -0.4300 
      5 CA         33.0265  -45.0560  -50.8252 C.3       1 UNK         0.0863 
      6 C6         33.6759  -44.6372  -52.1705 C.3       11 UNK        -0.0953 
      7 S7         32.7105  -45.0630  -53.6671 S.3       11 UNK        -0.2369 
      8 C8         32.6846  -43.4328  -54.4800 C.3       11 UNK         0.0226 
      9 C9         32.0460  -43.4615  -55.8618 C.ar      11 UNK        -0.0699 
     10 C10        32.6601  -44.1607  -56.9056 C.ar      11 UNK        -0.0804 
     11 C11        32.1234  -44.1269  -58.1968 C.ar      11 UNK        -0.0871 
     12 C12        30.9645  -43.3842  -58.4398 C.ar      11 UNK        -0.1008 
     13 C13        30.3489  -42.6679  -57.4094 C.ar      11 UNK        -0.0735 
     14 C14        30.8884  -42.7194  -56.1195 C.ar      11 UNK        -0.0945 
     15 C15        29.1461  -41.7845  -57.7143 C.3       11 UNK         0.0169 
     16 S16        27.5710  -42.6921  -57.6358 S.3       11 UNK        -0.2669 
     17 C17        27.3329  -42.8593  -55.8340 C.3       11 UNK        -0.0850 
     18 CA         27.4162  -44.3400  -55.3624 C.3       10 UNK         0.0855 
     19 C          27.5258  -44.4766  -53.8126 C.2       10 UNK         0.5543 
     20 N          27.1183  -45.5945  -53.2246 N.am      10 UNK        -0.7343 
     21 O          28.0066  -43.5735  -53.1330 O.2       10 UNK        -0.5027 
     22 N          26.3780  -45.1956  -55.9701 N.am      10 UNK        -0.4495 
     23 C          25.0535  -45.0682  -55.8039 C.2       10 UNK         0.4903 
     24 O          24.5380  -44.1939  -55.1055 O.2       10 UNK        -0.4860 
     25 CA         24.1249  -46.0903  -56.4942 C.3       9 UNK         0.0227 
     26 CB         22.9918  -45.3934  -57.2768 C.3       9 UNK        -0.1964 
     27 N          24.7952  -47.1006  -57.3245 N.am      9 UNK        -0.4231 
     28 C          25.4601  -46.9404  -58.4781 C.2       9 UNK         0.5014 
     29 O          25.6127  -45.8537  -59.0364 O.2       9 UNK        -0.5270 
     30 CA         26.0737  -48.2164  -59.0928 C.3       8 UNK         0.0284 
     31 CB         27.0543  -47.9108  -60.2412 C.3       8 UNK        -0.1977 
     32 N          26.7563  -49.0300  -58.0805 N.am      8 UNK        -0.4342 
     33 C          26.1533  -49.9103  -57.2658 C.2       8 UNK         0.5039 
     34 O          24.9463  -50.1488  -57.3117 O.2       8 UNK        -0.5547 
     35 CA         27.0053  -50.5943  -56.1807 C.3       7 UNK         0.0281 
     36 CB         27.4740  -51.9775  -56.6577 C.3       7 UNK        -0.1963 
     37 N          28.1651  -49.8015  -55.7711 N.am      7 UNK        -0.4444 
     38 C          28.1048  -48.6080  -55.1617 C.2       7 UNK         0.5104 
     39 O          27.0564  -48.0812  -54.7873 O.2       7 UNK        -0.5100 
     40 CA         29.4308  -47.8466  -54.9848 C.3       6 UNK         0.0396 
     41 CB         29.9192  -47.9401  -53.5307 C.3       6 UNK        -0.1801 
     42 N          30.4884  -48.2847  -55.9058 N.am      6 UNK        -0.4747 
     43 C          30.4400  -48.1316  -57.2413 C.2       6 UNK         0.5012 
     44 O          29.4624  -47.6581  -57.8205 O.2       6 UNK        -0.5003 
     45 CA         31.6412  -48.6336  -58.0768 C.3       5 UNK         0.0782 
     46 C46        32.6235  -47.4873  -58.4167 C.3       11 UNK        -0.0868 
     47 S47        32.0254  -46.4194  -59.7665 S.3       11 UNK        -0.2515 
     48 C48        32.8227  -44.8393  -59.3463 C.3       11 UNK         0.0199 
     49 N          32.3553  -49.7407  -57.4384 N.am      5 UNK        -0.4607 
     50 C          31.8720  -50.9751  -57.2481 C.2       4 UNK         0.5031 
     51 O          30.7715  -51.3477  -57.6523 O.2       4 UNK        -0.5119 
     52 CA         32.7508  -51.9373  -56.4215 C.3       4 UNK         0.0263 
     53 CB         33.6300  -52.7918  -57.3482 C.3       4 UNK        -0.1967 
     54 N          33.5987  -51.2569  -55.4289 N.am      4 UNK        -0.4237 
     55 C          33.1236  -50.4793  -54.4458 C.2       3 UNK         0.4908 
     56 O          31.9196  -50.2947  -54.2617 O.2       3 UNK        -0.5102 
     57 CA         34.1529  -49.7191  -53.5923 C.3       3 UNK         0.0241 
     58 CB         34.8562  -48.6363  -54.4312 C.3       3 UNK        -0.1971 
     59 N          33.4985  -49.0623  -52.4610 N.am      3 UNK        -0.4139 
     60 C          33.0896  -49.6687  -51.3396 C.2       2 UNK         0.5016 
     61 O          33.3516  -50.8421  -51.0671 O.2       2 UNK        -0.5319 
     62 CA         32.2139  -48.8382  -50.3754 C.3       2 UNK         0.0286 
     63 CB         32.5203  -49.1451  -48.8937 C.3       2 UNK        -0.1963 
     64 N          32.2284  -47.3863  -50.6253 N.am      2 UNK        -0.4790 
     65 C          33.2734  -46.5488  -50.5155 C.2       1 UNK         0.5024 
     66 O          34.4065  -46.9092  -50.1950 O.2       1 UNK        -0.4888 
     67 H67        29.2695  -43.2339  -49.1324 H         1 UNK         0.0892 
     68 H68        28.8132  -44.9276  -49.3370 H         1 UNK         0.0892 
     69 H69        29.1709  -43.9306  -50.7487 H         1 UNK         0.0892 
     70 H70        31.1671  -44.4689  -51.6262 H         1 UNK         0.3107 
     71 H71        33.5566  -44.5112  -50.0405 H         1 UNK         0.0773 
     72 H72        33.8310  -43.5576  -52.1486 H         1 UNK         0.0680 
     73 H73        34.6772  -45.0603  -52.2746 H         1 UNK         0.0680 
     74 H74        33.7080  -43.0676  -54.5786 H         1 UNK         0.0650 
     75 H75        32.1657  -42.7253  -53.8312 H         1 UNK         0.0650 
     76 H76        33.5699  -44.7124  -56.7119 H         1 UNK         0.1397 
     77 H77        30.5550  -43.3428  -59.4402 H         1 UNK         0.1363 
     78 H78        30.4291  -42.1513  -55.3227 H         1 UNK         0.1355 
     79 H79        29.2507  -41.3642  -58.7158 H         1 UNK         0.0707 
     80 H80        29.1152  -40.9296  -57.0369 H         1 UNK         0.0707 
     81 H81        26.3721  -42.4185  -55.5666 H         1 UNK         0.1034 
     82 H82        28.0770  -42.2480  -55.3232 H         1 UNK         0.1034 
     83 H83        28.3648  -44.7284  -55.7332 H         1 UNK         0.0482 
     84 H84        26.7965  -46.3784  -53.7817 H         1 UNK         0.3460 
     85 H85        27.1764  -45.6764  -52.2234 H         1 UNK         0.3460 
     86 H86        26.7124  -45.9500  -56.5501 H         1 UNK         0.2989 
     87 H87        23.6594  -46.6524  -55.6834 H         1 UNK         0.0559 
     88 H88        22.3162  -46.1185  -57.7303 H         1 UNK         0.0848 
     89 H89        23.3805  -44.7535  -58.0695 H         1 UNK         0.0848 
     90 H90        22.3918  -44.7624  -56.6199 H         1 UNK         0.0848 
     91 H91        24.7387  -48.0514  -56.9747 H         1 UNK         0.3144 
     92 H92        25.2483  -48.7940  -59.5143 H         1 UNK         0.0727 
     93 H93        27.4829  -48.8246  -60.6530 H         1 UNK         0.0790 
     94 H94        27.8754  -47.2722  -59.9136 H         1 UNK         0.0790 
     95 H95        26.5489  -47.3946  -61.0584 H         1 UNK         0.0790 
     96 H96        27.7384  -48.8186  -57.9347 H         1 UNK         0.3215 
     97 H97        26.3703  -50.7302  -55.3025 H         1 UNK         0.0863 
     98 H98        28.0428  -52.4948  -55.8847 H         1 UNK         0.0808 
     99 H99        28.1023  -51.9065  -57.5464 H         1 UNK         0.0808 
    100 H100       26.6226  -52.6105  -56.9115 H         1 UNK         0.0808 
    101 H101       29.0751  -50.1494  -56.0422 H         1 UNK         0.3118 
    102 H102       29.2371  -46.7961  -55.2018 H         1 UNK         0.0546 
    103 H103       30.0085  -48.9742  -53.1982 H         1 UNK         0.0828 
    104 H104       29.2198  -47.4487  -52.8544 H         1 UNK         0.0828 
    105 H105       30.8871  -47.4580  -53.4033 H         1 UNK         0.0828 
    106 H106       31.2641  -48.7872  -55.4887 H         1 UNK         0.3005 
    107 H107       31.2307  -49.0247  -59.0111 H         1 UNK         0.1257 
    108 H108       32.8504  -46.8968  -57.5281 H         1 UNK         0.0775 
    109 H109       33.5781  -47.8960  -58.7527 H         1 UNK         0.0775 
    110 H110       33.8755  -45.0102  -59.1157 H         1 UNK         0.0840 
    111 H111       32.8098  -44.1973  -60.2284 H         1 UNK         0.0840 
    112 H112       33.2741  -49.5323  -57.0782 H         1 UNK         0.2987 
    113 H113       32.0768  -52.6029  -55.8779 H         1 UNK         0.0785 
    114 H114       33.0215  -53.3250  -58.0802 H         1 UNK         0.0798 
    115 H115       34.1875  -53.5419  -56.7869 H         1 UNK         0.0798 
    116 H116       34.3464  -52.1833  -57.9016 H         1 UNK         0.0798 
    117 H117       34.5980  -51.3676  -55.5295 H         1 UNK         0.3079 
    118 H118       34.8936  -50.4291  -53.2182 H         1 UNK         0.0794 
    119 H119       35.4191  -49.0730  -55.2569 H         1 UNK         0.0786 
    120 H120       35.5661  -48.0700  -53.8275 H         1 UNK         0.0786 
    121 H121       34.1448  -47.9269  -54.8573 H         1 UNK         0.0786 
    122 H122       33.2157  -48.1042  -52.5997 H         1 UNK         0.3032 
    123 H123       31.1901  -49.1635  -50.5679 H         1 UNK         0.1094 
    124 H124       31.8810  -48.5651  -48.2280 H         1 UNK         0.0794 
    125 H125       32.3488  -50.1983  -48.6676 H         1 UNK         0.0794 
    126 H126       33.5574  -48.9254  -48.6392 H         1 UNK         0.0794 
    127 H127       31.3430  -46.9806  -50.8941 H         1 UNK         0.3016 
@<TRIPOS>BOND
     1    1    2 1    
     2    1   67 1    
     3    1   68 1    
     4    1   69 1    
     5    2    3 2    
     6    2    4 am   BACKBONE|DICT|INTERRES
     7    4    5 1    
     8    4   70 1    
     9    5    6 1    
    10    5   65 1    
    11    5   71 1    
    12    6    7 1    
    13    6   72 1    
    14    6   73 1    
    15    7    8 1    
    16    8    9 1    
    17    8   74 1    
    18    8   75 1    
    19    9   10 ar   
    20    9   14 ar   
    21   10   11 ar   
    22   10   76 1    
    23   11   12 ar   
    24   11   48 1    
    25   12   13 ar   
    26   12   77 1    
    27   13   14 ar   
    28   13   15 1    
    29   14   78 1    
    30   15   16 1    
    31   15   79 1    
    32   15   80 1    
    33   16   17 1    
    34   17   18 1    
    35   17   81 1    
    36   17   82 1    
    37   18   19 1    
    38   18   22 1    
    39   18   83 1    
    40   19   20 am   BACKBONE|DICT|INTERRES
    41   19   21 2    
    42   20   84 1    
    43   20   85 1    
    44   22   23 am   BACKBONE|DICT|INTERRES
    45   22   86 1    
    46   23   24 2    
    47   23   25 1    
    48   25   26 1    
    49   25   27 1    
    50   25   87 1    
    51   26   88 1    
    52   26   89 1    
    53   26   90 1    
    54   27   28 am   BACKBONE|DICT|INTERRES
    55   27   91 1    
    56   28   29 2    
    57   28   30 1    
    58   30   31 1    
    59   30   32 1    
    60   30   92 1    
    61   31   93 1    
    62   31   94 1    
    63   31   95 1    
    64   32   33 am   BACKBONE|DICT|INTERRES
    65   32   96 1    
    66   33   34 2    
    67   33   35 1    
    68   35   36 1    
    69   35   37 1    
    70   35   97 1    
    71   36   98 1    
    72   36   99 1    
    73   36  100 1    
    74   37   38 am   BACKBONE|DICT|INTERRES
    75   37  101 1    
    76   38   39 2    
    77   38   40 1    
    78   40   41 1    
    79   40   42 1    
    80   40  102 1    
    81   41  103 1    
    82   41  104 1    
    83   41  105 1    
    84   42   43 am   BACKBONE|DICT|INTERRES
    85   42  106 1    
    86   43   44 2    
    87   43   45 1    
    88   45   46 1    
    89   45   49 1    
    90   45  107 1    
    91   46   47 1    
    92   46  108 1    
    93   46  109 1    
    94   47   48 1    
    95   48  110 1    
    96   48  111 1    
    97   49   50 am   BACKBONE|DICT|INTERRES
    98   49  112 1    
    99   50   51 2    
   100   50   52 1    
   101   52   53 1    
   102   52   54 1    
   103   52  113 1    
   104   53  114 1    
   105   53  115 1    
   106   53  116 1    
   107   54   55 am   BACKBONE|DICT|INTERRES
   108   54  117 1    
   109   55   56 2    
   110   55   57 1    
   111   57   58 1    
   112   57   59 1    
   113   57  118 1    
   114   58  119 1    
   115   58  120 1    
   116   58  121 1    
   117   59   60 am   BACKBONE|DICT|INTERRES
   118   59  122 1    
   119   60   61 2    
   120   60   62 1    
   121   62   63 1    
   122   62   64 1    
   123   62  123 1    
   124   63  124 1    
   125   63  125 1    
   126   63  126 1    
   127   64   65 am   BACKBONE|DICT|INTERRES
   128   64  127 1    
   129   65   66 2    
@<TRIPOS>SUBSTRUCTURE
     1 UNK         1 GROUP             0       ****    0 ROOT    
