@<TRIPOS>MOLECULE
3R134
127   129    1
SMALL
USER_CHARGES


@<TRIPOS>ATOM
      1 CA         32.9108  -43.9838  -50.1659 C.3       0 UNK        -0.1968 
      2 C          34.0654  -44.6511  -50.8980 C.2       0 UNK         0.4852 
      3 O          35.0190  -45.0964  -50.2570 O.2       0 UNK        -0.5359 
      4 N          33.9912  -44.7097  -52.2351 N.am      1 UNK        -0.4300 
      5 CA         34.9700  -45.3642  -53.1109 C.3       1 UNK         0.0863 
      6 C6         34.8217  -44.8679  -54.5870 C.3       11 UNK        -0.0953 
      7 S7         34.4622  -46.0627  -55.9292 S.3       11 UNK        -0.2369 
      8 C8         32.6859  -46.4193  -55.7321 C.3       11 UNK         0.0226 
      9 C9         31.8193  -45.1780  -55.6058 C.ar      11 UNK        -0.0699 
     10 C10        31.3013  -44.8227  -54.3603 C.ar      11 UNK        -0.0804 
     11 C11        30.4685  -43.7070  -54.2236 C.ar      11 UNK        -0.0871 
     12 C12        30.1933  -42.9249  -55.3489 C.ar      11 UNK        -0.1008 
     13 C13        30.7054  -43.2672  -56.6075 C.ar      11 UNK        -0.0735 
     14 C14        31.5148  -44.4017  -56.7265 C.ar      11 UNK        -0.0945 
     15 C15        30.4528  -42.3991  -57.8390 C.3       11 UNK         0.0169 
     16 S16        28.8118  -41.5998  -57.8860 S.3       11 UNK        -0.2669 
     17 C17        27.7043  -42.9841  -58.3292 C.3       11 UNK        -0.0850 
     18 CA         26.8442  -43.5269  -57.1458 C.3       10 UNK         0.0855 
     19 C          25.6616  -42.6071  -56.7028 C.2       10 UNK         0.5543 
     20 N          25.7864  -41.2944  -56.8333 N.am      10 UNK        -0.7343 
     21 O          24.6430  -43.0699  -56.1915 O.2       10 UNK        -0.5027 
     22 N          26.4172  -44.9135  -57.3859 N.am      10 UNK        -0.4495 
     23 C          25.6124  -45.3313  -58.3734 C.2       10 UNK         0.4903 
     24 O          25.1517  -44.5965  -59.2493 O.2       10 UNK        -0.4860 
     25 CA         25.2895  -46.8373  -58.3790 C.3       9 UNK         0.0227 
     26 CB         24.5164  -47.2962  -59.6337 C.3       9 UNK        -0.1964 
     27 N          26.4893  -47.6532  -58.1664 N.am      9 UNK        -0.4231 
     28 C          27.5833  -47.7288  -58.9404 C.2       9 UNK         0.5014 
     29 O          27.7083  -47.1516  -60.0213 O.2       9 UNK        -0.5270 
     30 CA         28.7538  -48.5820  -58.4158 C.3       8 UNK         0.0284 
     31 CB         29.8845  -47.6797  -57.8998 C.3       8 UNK        -0.1977 
     32 N          28.3710  -49.5160  -57.3528 N.am      8 UNK        -0.4342 
     33 C          27.6478  -50.6286  -57.5438 C.2       8 UNK         0.5039 
     34 O          27.2796  -51.0255  -58.6500 O.2       8 UNK        -0.5547 
     35 CA         27.2323  -51.4099  -56.2886 C.3       7 UNK         0.0281 
     36 CB         28.3608  -52.3355  -55.8145 C.3       7 UNK        -0.1963 
     37 N          26.8345  -50.5187  -55.1974 N.am      7 UNK        -0.4444 
     38 C          25.6492  -49.8980  -55.1277 C.2       7 UNK         0.5104 
     39 O          24.7595  -50.0186  -55.9693 O.2       7 UNK        -0.5100 
     40 CA         25.4208  -48.9753  -53.9193 C.3       6 UNK         0.0396 
     41 CB         24.8804  -49.7763  -52.7242 C.3       6 UNK        -0.1801 
     42 N          26.6271  -48.2492  -53.5159 N.am      6 UNK        -0.4747 
     43 C          27.1887  -47.2630  -54.2296 C.2       6 UNK         0.5012 
     44 O          26.7595  -46.8679  -55.3131 O.2       6 UNK        -0.5003 
     45 CA         28.4565  -46.6207  -53.6422 C.3       5 UNK         0.0782 
     46 C46        28.0667  -45.4884  -52.6550 C.3       11 UNK        -0.0868 
     47 S47        29.4832  -44.7284  -51.7883 S.3       11 UNK        -0.2515 
     48 C48        29.8738  -43.3121  -52.8733 C.3       11 UNK         0.0199 
     49 N          29.3838  -47.5985  -53.0559 N.am      5 UNK        -0.4607 
     50 C          29.9713  -48.6051  -53.7170 C.2       4 UNK         0.5031 
     51 O          29.6913  -48.9150  -54.8760 O.2       4 UNK        -0.5119 
     52 CA         31.0247  -49.3984  -52.9280 C.3       4 UNK         0.0263 
     53 CB         30.4370  -50.7059  -52.3609 C.3       4 UNK        -0.1967 
     54 N          32.2615  -49.6159  -53.6919 N.am      4 UNK        -0.4237 
     55 C          32.5029  -50.4672  -54.7048 C.2       3 UNK         0.4908 
     56 O          31.6932  -51.2889  -55.1303 O.2       3 UNK        -0.5102 
     57 CA         33.8991  -50.4284  -55.3624 C.3       3 UNK         0.0241 
     58 CB         33.8139  -49.9664  -56.8270 C.3       3 UNK        -0.1971 
     59 N          34.8754  -49.6008  -54.6476 N.am      3 UNK        -0.4139 
     60 C          35.4945  -49.9717  -53.5184 C.2       2 UNK         0.5016 
     61 O          35.3540  -51.0779  -52.9958 O.2       2 UNK        -0.5319 
     62 CA         36.4143  -48.9397  -52.8396 C.3       2 UNK         0.0286 
     63 CB         37.8842  -49.2293  -53.1855 C.3       2 UNK        -0.1963 
     64 N          36.1250  -47.5289  -53.1333 N.am      2 UNK        -0.4790 
     65 C          34.9649  -46.8971  -52.9011 C.2       1 UNK         0.5024 
     66 O          33.9296  -47.4721  -52.5526 O.2       1 UNK        -0.4888 
     67 H67        32.2986  -43.3843  -50.8374 H         1 UNK         0.0892 
     68 H68        32.2740  -44.7375  -49.7037 H         1 UNK         0.0892 
     69 H69        33.2882  -43.3275  -49.3824 H         1 UNK         0.0892 
     70 H70        33.1814  -44.3274  -52.6993 H         1 UNK         0.3107 
     71 H71        35.9464  -45.0198  -52.7613 H         1 UNK         0.0773 
     72 H72        34.1062  -44.0478  -54.6596 H         1 UNK         0.0680 
     73 H73        35.7664  -44.4034  -54.8736 H         1 UNK         0.0680 
     74 H74        32.5445  -47.0727  -54.8721 H         1 UNK         0.0650 
     75 H75        32.3549  -46.9860  -56.5997 H         1 UNK         0.0650 
     76 H76        31.5309  -45.4386  -53.5023 H         1 UNK         0.1397 
     77 H77        29.5789  -42.0418  -55.2413 H         1 UNK         0.1363 
     78 H78        31.9245  -44.6756  -57.6892 H         1 UNK         0.1355 
     79 H79        31.2121  -41.6165  -57.8580 H         1 UNK         0.0707 
     80 H80        30.5895  -42.9782  -58.7537 H         1 UNK         0.0707 
     81 H81        28.3166  -43.7900  -58.7372 H         1 UNK         0.1034 
     82 H82        27.0622  -42.6658  -59.1523 H         1 UNK         0.1034 
     83 H83        27.4907  -43.5963  -56.2707 H         1 UNK         0.0482 
     84 H84        26.6339  -40.9061  -57.2225 H         1 UNK         0.3460 
     85 H85        25.0380  -40.6892  -56.5345 H         1 UNK         0.3460 
     86 H86        26.6746  -45.5892  -56.6708 H         1 UNK         0.2989 
     87 H87        24.6475  -47.0149  -57.5148 H         1 UNK         0.0559 
     88 H88        25.0753  -47.1033  -60.5498 H         1 UNK         0.0848 
     89 H89        23.5649  -46.7701  -59.7185 H         1 UNK         0.0848 
     90 H90        24.2946  -48.3626  -59.5939 H         1 UNK         0.0848 
     91 H91        26.5323  -48.1220  -57.2713 H         1 UNK         0.3144 
     92 H92        29.1379  -49.1619  -59.2576 H         1 UNK         0.0727 
     93 H93        30.7402  -48.2781  -57.5884 H         1 UNK         0.0790 
     94 H94        29.5654  -47.0773  -57.0478 H         1 UNK         0.0790 
     95 H95        30.2290  -46.9941  -58.6752 H         1 UNK         0.0790 
     96 H96        28.7073  -49.2994  -56.4150 H         1 UNK         0.3215 
     97 H97        26.3775  -52.0355  -56.5562 H         1 UNK         0.0863 
     98 H98        29.2328  -51.7663  -55.4974 H         1 UNK         0.0808 
     99 H99        28.6807  -53.0056  -56.6135 H         1 UNK         0.0808 
    100 H100       28.0421  -52.9560  -54.9769 H         1 UNK         0.0808 
    101 H101       27.5247  -50.3241  -54.4865 H         1 UNK         0.3118 
    102 H102       24.6639  -48.2407  -54.2033 H         1 UNK         0.0546 
    103 H103       24.6347  -49.1231  -51.8869 H         1 UNK         0.0828 
    104 H104       25.5990  -50.5179  -52.3732 H         1 UNK         0.0828 
    105 H105       23.9679  -50.3100  -52.9940 H         1 UNK         0.0828 
    106 H106       27.0521  -48.5098  -52.6374 H         1 UNK         0.3005 
    107 H107       28.9730  -46.1683  -54.4901 H         1 UNK         0.1257 
    108 H108       27.3956  -45.8719  -51.8839 H         1 UNK         0.0775 
    109 H109       27.5078  -44.7072  -53.1744 H         1 UNK         0.0775 
    110 H110       28.9670  -42.7216  -53.0137 H         1 UNK         0.0840 
    111 H111       30.5828  -42.6612  -52.3616 H         1 UNK         0.0840 
    112 H112       29.6559  -47.4137  -52.1009 H         1 UNK         0.2987 
    113 H113       31.3321  -48.7873  -52.0776 H         1 UNK         0.0785 
    114 H114       31.1905  -51.2767  -51.8183 H         1 UNK         0.0798 
    115 H115       29.6249  -50.4958  -51.6641 H         1 UNK         0.0798 
    116 H116       30.0292  -51.3466  -53.1427 H         1 UNK         0.0798 
    117 H117       33.0134  -48.9854  -53.4292 H         1 UNK         0.3079 
    118 H118       34.2664  -51.4571  -55.3668 H         1 UNK         0.0794 
    119 H119       33.1103  -50.5801  -57.3915 H         1 UNK         0.0786 
    120 H120       34.7809  -50.0469  -57.3239 H         1 UNK         0.0786 
    121 H121       33.4813  -48.9343  -56.9105 H         1 UNK         0.0786 
    122 H122       35.0508  -48.6735  -55.0086 H         1 UNK         0.3032 
    123 H123       36.2860  -49.0732  -51.7630 H         1 UNK         0.1094 
    124 H124       38.0874  -49.0725  -54.2457 H         1 UNK         0.0794 
    125 H125       38.5609  -48.5931  -52.6146 H         1 UNK         0.0794 
    126 H126       38.1452  -50.2631  -52.9536 H         1 UNK         0.0794 
    127 H127       36.9089  -46.9773  -53.4533 H         1 UNK         0.3016 
@<TRIPOS>BOND
     1    1    2 1    
     2    1   67 1    
     3    1   68 1    
     4    1   69 1    
     5    2    3 2    
     6    2    4 am   BACKBONE|DICT|INTERRES
     7    4    5 1    
     8    4   70 1    
     9    5    6 1    
    10    5   65 1    
    11    5   71 1    
    12    6    7 1    
    13    6   72 1    
    14    6   73 1    
    15    7    8 1    
    16    8    9 1    
    17    8   74 1    
    18    8   75 1    
    19    9   10 ar   
    20    9   14 ar   
    21   10   11 ar   
    22   10   76 1    
    23   11   12 ar   
    24   11   48 1    
    25   12   13 ar   
    26   12   77 1    
    27   13   14 ar   
    28   13   15 1    
    29   14   78 1    
    30   15   16 1    
    31   15   79 1    
    32   15   80 1    
    33   16   17 1    
    34   17   18 1    
    35   17   81 1    
    36   17   82 1    
    37   18   19 1    
    38   18   22 1    
    39   18   83 1    
    40   19   20 am   BACKBONE|DICT|INTERRES
    41   19   21 2    
    42   20   84 1    
    43   20   85 1    
    44   22   23 am   BACKBONE|DICT|INTERRES
    45   22   86 1    
    46   23   24 2    
    47   23   25 1    
    48   25   26 1    
    49   25   27 1    
    50   25   87 1    
    51   26   88 1    
    52   26   89 1    
    53   26   90 1    
    54   27   28 am   BACKBONE|DICT|INTERRES
    55   27   91 1    
    56   28   29 2    
    57   28   30 1    
    58   30   31 1    
    59   30   32 1    
    60   30   92 1    
    61   31   93 1    
    62   31   94 1    
    63   31   95 1    
    64   32   33 am   BACKBONE|DICT|INTERRES
    65   32   96 1    
    66   33   34 2    
    67   33   35 1    
    68   35   36 1    
    69   35   37 1    
    70   35   97 1    
    71   36   98 1    
    72   36   99 1    
    73   36  100 1    
    74   37   38 am   BACKBONE|DICT|INTERRES
    75   37  101 1    
    76   38   39 2    
    77   38   40 1    
    78   40   41 1    
    79   40   42 1    
    80   40  102 1    
    81   41  103 1    
    82   41  104 1    
    83   41  105 1    
    84   42   43 am   BACKBONE|DICT|INTERRES
    85   42  106 1    
    86   43   44 2    
    87   43   45 1    
    88   45   46 1    
    89   45   49 1    
    90   45  107 1    
    91   46   47 1    
    92   46  108 1    
    93   46  109 1    
    94   47   48 1    
    95   48  110 1    
    96   48  111 1    
    97   49   50 am   BACKBONE|DICT|INTERRES
    98   49  112 1    
    99   50   51 2    
   100   50   52 1    
   101   52   53 1    
   102   52   54 1    
   103   52  113 1    
   104   53  114 1    
   105   53  115 1    
   106   53  116 1    
   107   54   55 am   BACKBONE|DICT|INTERRES
   108   54  117 1    
   109   55   56 2    
   110   55   57 1    
   111   57   58 1    
   112   57   59 1    
   113   57  118 1    
   114   58  119 1    
   115   58  120 1    
   116   58  121 1    
   117   59   60 am   BACKBONE|DICT|INTERRES
   118   59  122 1    
   119   60   61 2    
   120   60   62 1    
   121   62   63 1    
   122   62   64 1    
   123   62  123 1    
   124   63  124 1    
   125   63  125 1    
   126   63  126 1    
   127   64   65 am   BACKBONE|DICT|INTERRES
   128   64  127 1    
   129   65   66 2    
@<TRIPOS>SUBSTRUCTURE
     1 UNK         1 GROUP             0       ****    0 ROOT    
