@<TRIPOS>MOLECULE
3R134
127   129    1
SMALL
USER_CHARGES


@<TRIPOS>ATOM
      1 CA         37.9795  -45.4847  -53.9183 C.3       0 UNK        -0.1968 
      2 C          36.5398  -45.7876  -53.5324 C.2       0 UNK         0.4852 
      3 O          36.1949  -46.9516  -53.3328 O.2       0 UNK        -0.5359 
      4 N          35.7050  -44.7470  -53.4016 N.am      1 UNK        -0.4300 
      5 CA         34.2616  -44.8084  -53.1125 C.3       1 UNK         0.0863 
      6 C6         33.6146  -43.4060  -53.2080 C.3       11 UNK        -0.0953 
      7 S7         33.7437  -42.7207  -54.8940 S.3       11 UNK        -0.2369 
      8 C8         31.9957  -42.5184  -55.3596 C.3       11 UNK         0.0226 
      9 C9         31.2681  -43.8458  -55.5291 C.ar      11 UNK        -0.0699 
     10 C10        31.4538  -44.6111  -56.6837 C.ar      11 UNK        -0.0804 
     11 C11        30.7272  -45.7905  -56.8819 C.ar      11 UNK        -0.0871 
     12 C12        29.7979  -46.1944  -55.9164 C.ar      11 UNK        -0.1008 
     13 C13        29.6357  -45.4612  -54.7369 C.ar      11 UNK        -0.0735 
     14 C14        30.3739  -44.2886  -54.5515 C.ar      11 UNK        -0.0945 
     15 C15        28.6873  -45.9357  -53.6447 C.3       11 UNK         0.0169 
     16 S16        27.3289  -44.7577  -53.3692 S.3       11 UNK        -0.2669 
     17 C17        25.8582  -45.6547  -53.9815 C.3       11 UNK        -0.0850 
     18 CA         25.8905  -46.1132  -55.4713 C.3       10 UNK         0.0855 
     19 C          24.5445  -46.7706  -55.8978 C.2       10 UNK         0.5543 
     20 N          23.9621  -46.4399  -57.0447 N.am      10 UNK        -0.7343 
     21 O          24.0341  -47.6305  -55.1850 O.2       10 UNK        -0.5027 
     22 N          26.4051  -45.1144  -56.4197 N.am      10 UNK        -0.4495 
     23 C          25.9915  -43.8504  -56.5795 C.2       10 UNK         0.4903 
     24 O          25.1353  -43.2994  -55.8874 O.2       10 UNK        -0.4860 
     25 CA         26.6241  -43.0769  -57.7519 C.3       9 UNK         0.0227 
     26 CB         27.9357  -42.4121  -57.3017 C.3       9 UNK        -0.1964 
     27 N          26.8840  -43.9191  -58.9255 N.am      9 UNK        -0.4231 
     28 C          25.9535  -44.6130  -59.5971 C.2       9 UNK         0.5014 
     29 O          24.7472  -44.5584  -59.3494 O.2       9 UNK        -0.5270 
     30 CA         26.4365  -45.5831  -60.6912 C.3       8 UNK         0.0284 
     31 CB         27.9279  -45.4311  -61.0719 C.3       8 UNK        -0.1977 
     32 N          26.1283  -46.9695  -60.3169 N.am      8 UNK        -0.4342 
     33 C          26.5503  -47.6132  -59.2194 C.2       8 UNK         0.5039 
     34 O          27.3301  -47.1329  -58.3875 O.2       8 UNK        -0.5547 
     35 CA         26.0078  -49.0326  -59.0090 C.3       7 UNK         0.0281 
     36 CB         26.6185  -50.0182  -60.0239 C.3       7 UNK        -0.1963 
     37 N          26.3649  -49.4290  -57.6547 N.am      7 UNK        -0.4444 
     38 C          25.8639  -50.4350  -56.9308 C.2       7 UNK         0.5104 
     39 O          24.9576  -51.1748  -57.3173 O.2       7 UNK        -0.5100 
     40 CA         26.5138  -50.6459  -55.5441 C.3       6 UNK         0.0396 
     41 CB         26.2563  -52.0516  -54.9622 C.3       6 UNK        -0.1801 
     42 N          27.9505  -50.3250  -55.5494 N.am      6 UNK        -0.4747 
     43 C          28.9065  -50.9083  -56.2950 C.2       6 UNK         0.5012 
     44 O          28.7373  -51.9253  -56.9680 O.2       6 UNK        -0.5003 
     45 CA         30.2637  -50.1782  -56.3666 C.3       5 UNK         0.0782 
     46 C46        30.2845  -49.3121  -57.6552 C.3       11 UNK        -0.0868 
     47 S47        31.7350  -48.2157  -57.8248 S.3       11 UNK        -0.2515 
     48 C48        30.9380  -46.6056  -58.1521 C.3       11 UNK         0.0199 
     49 N          30.5648  -49.4016  -55.1577 N.am      5 UNK        -0.4607 
     50 C          30.8260  -49.9313  -53.9565 C.2       4 UNK         0.5031 
     51 O          30.7776  -51.1370  -53.7050 O.2       4 UNK        -0.5119 
     52 CA         31.1836  -48.9359  -52.8409 C.3       4 UNK         0.0263 
     53 CB         30.0233  -48.8171  -51.8386 C.3       4 UNK        -0.1967 
     54 N          32.4010  -49.2980  -52.1115 N.am      4 UNK        -0.4237 
     55 C          33.6088  -49.5284  -52.6456 C.2       3 UNK         0.4908 
     56 O          33.8517  -49.5062  -53.8535 O.2       3 UNK        -0.5102 
     57 CA         34.7465  -49.7391  -51.6350 C.3       3 UNK         0.0241 
     58 CB         36.0135  -50.3373  -52.2745 C.3       3 UNK        -0.1971 
     59 N          35.0665  -48.4332  -51.0653 N.am      3 UNK        -0.4139 
     60 C          34.5466  -47.9435  -49.9304 C.2       2 UNK         0.5016 
     61 O          33.8697  -48.6103  -49.1468 O.2       2 UNK        -0.5319 
     62 CA         34.7708  -46.4455  -49.6434 C.3       2 UNK         0.0286 
     63 CB         36.0289  -46.2417  -48.7845 C.3       2 UNK        -0.1963 
     64 N          34.8801  -45.6398  -50.8639 N.am      2 UNK        -0.4790 
     65 C          33.9006  -45.4819  -51.7687 C.2       1 UNK         0.5024 
     66 O          32.7464  -45.8707  -51.5866 O.2       1 UNK        -0.4888 
     67 H67        38.2287  -45.9860  -54.8532 H         1 UNK         0.0892 
     68 H68        38.1516  -44.4166  -54.0500 H         1 UNK         0.0892 
     69 H69        38.6587  -45.8459  -53.1465 H         1 UNK         0.0892 
     70 H70        36.0574  -43.8172  -53.5803 H         1 UNK         0.3107 
     71 H71        33.8134  -45.4384  -53.8846 H         1 UNK         0.0773 
     72 H72        32.5642  -43.4393  -52.9152 H         1 UNK         0.0680 
     73 H73        34.0953  -42.7131  -52.5149 H         1 UNK         0.0680 
     74 H74        31.4957  -41.8954  -54.6162 H         1 UNK         0.0650 
     75 H75        31.9479  -41.9635  -56.2976 H         1 UNK         0.0650 
     76 H76        32.1568  -44.2754  -57.4339 H         1 UNK         0.1397 
     77 H77        29.2068  -47.0826  -56.0808 H         1 UNK         0.1363 
     78 H78        30.2324  -43.7103  -53.6487 H         1 UNK         0.1355 
     79 H79        29.2505  -46.0344  -52.7157 H         1 UNK         0.0707 
     80 H80        28.2904  -46.9258  -53.8680 H         1 UNK         0.0707 
     81 H81        24.9974  -45.0049  -53.8145 H         1 UNK         0.1034 
     82 H82        25.7004  -46.5168  -53.3308 H         1 UNK         0.1034 
     83 H83        26.6112  -46.9278  -55.5366 H         1 UNK         0.0482 
     84 H84        24.3583  -45.7307  -57.6492 H         1 UNK         0.3460 
     85 H85        23.0937  -46.8834  -57.2967 H         1 UNK         0.3460 
     86 H86        27.0571  -45.4895  -57.0998 H         1 UNK         0.2989 
     87 H87        25.9246  -42.2945  -58.0531 H         1 UNK         0.0559 
     88 H88        28.3633  -41.7941  -58.0912 H         1 UNK         0.0848 
     89 H89        28.6827  -43.1516  -57.0093 H         1 UNK         0.0848 
     90 H90        27.7684  -41.7653  -56.4393 H         1 UNK         0.0848 
     91 H91        27.8504  -44.0519  -59.1853 H         1 UNK         0.3144 
     92 H92        25.8450  -45.3591  -61.5803 H         1 UNK         0.0727 
     93 H93        28.1897  -46.1045  -61.8881 H         1 UNK         0.0790 
     94 H94        28.5968  -45.6535  -60.2413 H         1 UNK         0.0790 
     95 H95        28.1460  -44.4186  -61.4144 H         1 UNK         0.0790 
     96 H96        25.4656  -47.4400  -60.9178 H         1 UNK         0.3215 
     97 H97        24.9199  -49.0136  -59.1019 H         1 UNK         0.0863 
     98 H98        26.2474  -51.0314  -59.8688 H         1 UNK         0.0808 
     99 H99        27.7064  -50.0478  -59.9480 H         1 UNK         0.0808 
    100 H100       26.3690  -49.7396  -61.0482 H         1 UNK         0.0808 
    101 H101       27.0696  -48.8242  -57.2521 H         1 UNK         0.3118 
    102 H102       26.0416  -49.9231  -54.8769 H         1 UNK         0.0546 
    103 H103       26.6291  -52.8386  -55.6181 H         1 UNK         0.0828 
    104 H104       25.1886  -52.2257  -54.8238 H         1 UNK         0.0828 
    105 H105       26.7323  -52.1716  -53.9892 H         1 UNK         0.0828 
    106 H106       28.2199  -49.5153  -55.0104 H         1 UNK         0.3005 
    107 H107       31.0367  -50.9450  -56.4586 H         1 UNK         0.1257 
    108 H108       30.2641  -49.9590  -58.5346 H         1 UNK         0.0775 
    109 H109       29.3785  -48.7099  -57.7227 H         1 UNK         0.0775 
    110 H110       31.5692  -46.0557  -58.8517 H         1 UNK         0.0840 
    111 H111       29.9868  -46.7453  -58.6651 H         1 UNK         0.0840 
    112 H112       30.7042  -48.4108  -55.2968 H         1 UNK         0.2987 
    113 H113       31.3570  -47.9536  -53.2863 H         1 UNK         0.0785 
    114 H114       29.8837  -49.7408  -51.2753 H         1 UNK         0.0798 
    115 H115       30.1982  -48.0111  -51.1252 H         1 UNK         0.0798 
    116 H116       29.0805  -48.6059  -52.3430 H         1 UNK         0.0798 
    117 H117       32.3246  -49.3186  -51.1040 H         1 UNK         0.3079 
    118 H118       34.4008  -50.4280  -50.8610 H         1 UNK         0.0794 
    119 H119       35.7996  -51.3053  -52.7292 H         1 UNK         0.0786 
    120 H120       36.7951  -50.4922  -51.5306 H         1 UNK         0.0786 
    121 H121       36.4197  -49.6920  -53.0547 H         1 UNK         0.0786 
    122 H122       35.5449  -47.7956  -51.6978 H         1 UNK         0.3032 
    123 H123       33.9051  -46.0883  -49.0809 H         1 UNK         0.1094 
    124 H124       35.9640  -46.8133  -47.8575 H         1 UNK         0.0794 
    125 H125       36.9311  -46.5659  -49.3047 H         1 UNK         0.0794 
    126 H126       36.1564  -45.1947  -48.5087 H         1 UNK         0.0794 
    127 H127       35.7954  -45.2808  -51.0938 H         1 UNK         0.3016 
@<TRIPOS>BOND
     1    1    2 1    
     2    1   67 1    
     3    1   68 1    
     4    1   69 1    
     5    2    3 2    
     6    2    4 am   BACKBONE|DICT|INTERRES
     7    4    5 1    
     8    4   70 1    
     9    5    6 1    
    10    5   65 1    
    11    5   71 1    
    12    6    7 1    
    13    6   72 1    
    14    6   73 1    
    15    7    8 1    
    16    8    9 1    
    17    8   74 1    
    18    8   75 1    
    19    9   10 ar   
    20    9   14 ar   
    21   10   11 ar   
    22   10   76 1    
    23   11   12 ar   
    24   11   48 1    
    25   12   13 ar   
    26   12   77 1    
    27   13   14 ar   
    28   13   15 1    
    29   14   78 1    
    30   15   16 1    
    31   15   79 1    
    32   15   80 1    
    33   16   17 1    
    34   17   18 1    
    35   17   81 1    
    36   17   82 1    
    37   18   19 1    
    38   18   22 1    
    39   18   83 1    
    40   19   20 am   BACKBONE|DICT|INTERRES
    41   19   21 2    
    42   20   84 1    
    43   20   85 1    
    44   22   23 am   BACKBONE|DICT|INTERRES
    45   22   86 1    
    46   23   24 2    
    47   23   25 1    
    48   25   26 1    
    49   25   27 1    
    50   25   87 1    
    51   26   88 1    
    52   26   89 1    
    53   26   90 1    
    54   27   28 am   BACKBONE|DICT|INTERRES
    55   27   91 1    
    56   28   29 2    
    57   28   30 1    
    58   30   31 1    
    59   30   32 1    
    60   30   92 1    
    61   31   93 1    
    62   31   94 1    
    63   31   95 1    
    64   32   33 am   BACKBONE|DICT|INTERRES
    65   32   96 1    
    66   33   34 2    
    67   33   35 1    
    68   35   36 1    
    69   35   37 1    
    70   35   97 1    
    71   36   98 1    
    72   36   99 1    
    73   36  100 1    
    74   37   38 am   BACKBONE|DICT|INTERRES
    75   37  101 1    
    76   38   39 2    
    77   38   40 1    
    78   40   41 1    
    79   40   42 1    
    80   40  102 1    
    81   41  103 1    
    82   41  104 1    
    83   41  105 1    
    84   42   43 am   BACKBONE|DICT|INTERRES
    85   42  106 1    
    86   43   44 2    
    87   43   45 1    
    88   45   46 1    
    89   45   49 1    
    90   45  107 1    
    91   46   47 1    
    92   46  108 1    
    93   46  109 1    
    94   47   48 1    
    95   48  110 1    
    96   48  111 1    
    97   49   50 am   BACKBONE|DICT|INTERRES
    98   49  112 1    
    99   50   51 2    
   100   50   52 1    
   101   52   53 1    
   102   52   54 1    
   103   52  113 1    
   104   53  114 1    
   105   53  115 1    
   106   53  116 1    
   107   54   55 am   BACKBONE|DICT|INTERRES
   108   54  117 1    
   109   55   56 2    
   110   55   57 1    
   111   57   58 1    
   112   57   59 1    
   113   57  118 1    
   114   58  119 1    
   115   58  120 1    
   116   58  121 1    
   117   59   60 am   BACKBONE|DICT|INTERRES
   118   59  122 1    
   119   60   61 2    
   120   60   62 1    
   121   62   63 1    
   122   62   64 1    
   123   62  123 1    
   124   63  124 1    
   125   63  125 1    
   126   63  126 1    
   127   64   65 am   BACKBONE|DICT|INTERRES
   128   64  127 1    
   129   65   66 2    
@<TRIPOS>SUBSTRUCTURE
     1 UNK         1 GROUP             0       ****    0 ROOT    
