@<TRIPOS>MOLECULE
3R134
127   129    1
SMALL
USER_CHARGES


@<TRIPOS>ATOM
      1 CA         36.9816  -42.9493  -50.8794 C.3       0 UNK        -0.1968 
      2 C          36.9322  -44.2667  -51.6396 C.2       0 UNK         0.4852 
      3 O          37.9217  -45.0012  -51.6549 O.2       0 UNK        -0.5359 
      4 N          35.7922  -44.5657  -52.2748 N.am      1 UNK        -0.4300 
      5 CA         35.5450  -45.8115  -53.0063 C.3       1 UNK         0.0863 
      6 C6         34.3360  -45.6890  -53.9609 C.3       11 UNK        -0.0953 
      7 S7         34.6082  -44.4872  -55.3065 S.3       11 UNK        -0.2369 
      8 C8         33.5642  -43.0787  -54.8087 C.3       11 UNK         0.0226 
      9 C9         32.0759  -43.3997  -54.8640 C.ar      11 UNK        -0.0699 
     10 C10        31.3446  -43.5527  -53.6823 C.ar      11 UNK        -0.0804 
     11 C11        29.9744  -43.8294  -53.7206 C.ar      11 UNK        -0.0871 
     12 C12        29.3337  -43.9489  -54.9576 C.ar      11 UNK        -0.1008 
     13 C13        30.0529  -43.7969  -56.1471 C.ar      11 UNK        -0.0735 
     14 C14        31.4226  -43.5182  -56.0950 C.ar      11 UNK        -0.0945 
     15 C15        29.3415  -43.9216  -57.4847 C.3       11 UNK         0.0169 
     16 S16        28.4652  -42.3794  -57.8870 S.3       11 UNK        -0.2669 
     17 C17        27.6196  -42.8246  -59.4404 C.3       11 UNK        -0.0850 
     18 CA         26.1234  -43.1800  -59.2271 C.3       10 UNK         0.0855 
     19 C          25.3693  -43.2069  -60.5783 C.2       10 UNK         0.5543 
     20 N          24.5716  -42.1888  -60.8686 N.am      10 UNK        -0.7343 
     21 O          25.5324  -44.1236  -61.3811 O.2       10 UNK        -0.5027 
     22 N          25.9718  -44.4821  -58.5725 N.am      10 UNK        -0.4495 
     23 C          25.6186  -44.7044  -57.3038 C.2       10 UNK         0.4903 
     24 O          25.3514  -43.8108  -56.5005 O.2       10 UNK        -0.4860 
     25 CA         25.5861  -46.1671  -56.8172 C.3       9 UNK         0.0227 
     26 CB         24.1507  -46.7266  -56.8110 C.3       9 UNK        -0.1964 
     27 N          26.5198  -47.0762  -57.5013 N.am      9 UNK        -0.4231 
     28 C          26.5017  -47.5142  -58.7689 C.2       9 UNK         0.5014 
     29 O          25.6438  -47.1967  -59.5919 O.2       9 UNK        -0.5270 
     30 CA         27.6519  -48.4284  -59.2087 C.3       8 UNK         0.0284 
     31 CB         28.9025  -47.5951  -59.5428 C.3       8 UNK        -0.1977 
     32 N          27.9803  -49.4174  -58.1781 N.am      8 UNK        -0.4342 
     33 C          27.8894  -50.7436  -58.3394 C.2       8 UNK         0.5039 
     34 O          27.5118  -51.2846  -59.3801 O.2       8 UNK        -0.5547 
     35 CA         28.3021  -51.6340  -57.1550 C.3       7 UNK         0.0281 
     36 CB         29.8000  -51.9728  -57.2275 C.3       7 UNK        -0.1963 
     37 N          27.9924  -51.0725  -55.8378 N.am      7 UNK        -0.4444 
     38 C          26.7548  -50.9900  -55.3269 C.2       7 UNK         0.5104 
     39 O          25.7339  -51.2762  -55.9526 O.2       7 UNK        -0.5100 
     40 CA         26.6340  -50.5380  -53.8640 C.3       6 UNK         0.0396 
     41 CB         27.0046  -51.6895  -52.9146 C.3       6 UNK        -0.1801 
     42 N          27.5001  -49.3928  -53.5941 N.am      6 UNK        -0.4747 
     43 C          27.0868  -48.1188  -53.5303 C.2       6 UNK         0.5012 
     44 O          25.9070  -47.7754  -53.6021 O.2       6 UNK        -0.5003 
     45 CA         28.1761  -47.0357  -53.3694 C.3       5 UNK         0.0782 
     46 C46        28.2921  -46.6140  -51.8831 C.3       11 UNK        -0.0868 
     47 S47        29.6654  -45.4703  -51.5101 S.3       11 UNK        -0.2515 
     48 C48        29.1947  -43.9638  -52.4194 C.3       11 UNK         0.0199 
     49 N          29.4659  -47.4348  -53.9413 N.am      5 UNK        -0.4607 
     50 C          29.6805  -47.7162  -55.2320 C.2       4 UNK         0.5031 
     51 O          28.8106  -47.6484  -56.0978 O.2       4 UNK        -0.5119 
     52 CA         31.0758  -48.2252  -55.6218 C.3       4 UNK         0.0263 
     53 CB         31.9178  -47.0667  -56.1683 C.3       4 UNK        -0.1967 
     54 N          31.7891  -48.9166  -54.5367 N.am      4 UNK        -0.4237 
     55 C          31.3444  -50.0295  -53.9288 C.2       3 UNK         0.4908 
     56 O          30.2510  -50.5397  -54.1845 O.2       3 UNK        -0.5102 
     57 CA         32.2289  -50.6826  -52.8541 C.3       3 UNK         0.0241 
     58 CB         32.3841  -52.1957  -53.1044 C.3       3 UNK        -0.1971 
     59 N          33.5564  -50.0675  -52.7228 N.am      3 UNK        -0.4139 
     60 C          34.2237  -49.9682  -51.5637 C.2       2 UNK         0.5016 
     61 O          33.7645  -50.3093  -50.4728 O.2       2 UNK        -0.5319 
     62 CA         35.6546  -49.4085  -51.6307 C.3       2 UNK         0.0286 
     63 CB         36.6298  -50.4683  -52.1709 C.3       2 UNK        -0.1963 
     64 N          35.7607  -48.1864  -52.4329 N.am      2 UNK        -0.4790 
     65 C          35.3268  -46.9842  -52.0287 C.2       1 UNK         0.5024 
     66 O          34.7546  -46.7887  -50.9535 O.2       1 UNK        -0.4888 
     67 H67        37.1711  -43.1335  -49.8223 H         1 UNK         0.0892 
     68 H68        36.0482  -42.3932  -50.9646 H         1 UNK         0.0892 
     69 H69        37.7851  -42.3229  -51.2661 H         1 UNK         0.0892 
     70 H70        35.0037  -43.9416  -52.1976 H         1 UNK         0.3107 
     71 H71        36.4327  -46.0308  -53.6044 H         1 UNK         0.0773 
     72 H72        33.4269  -45.4441  -53.4100 H         1 UNK         0.0680 
     73 H73        34.1512  -46.6508  -54.4398 H         1 UNK         0.0680 
     74 H74        33.8553  -42.7488  -53.8107 H         1 UNK         0.0650 
     75 H75        33.7710  -42.2409  -55.4759 H         1 UNK         0.0650 
     76 H76        31.8395  -43.4543  -52.7258 H         1 UNK         0.1397 
     77 H77        28.2708  -44.1419  -55.0038 H         1 UNK         0.1363 
     78 H78        31.9832  -43.3936  -57.0113 H         1 UNK         0.1355 
     79 H79        28.6365  -44.7529  -57.4472 H         1 UNK         0.0707 
     80 H80        30.0536  -44.1547  -58.2779 H         1 UNK         0.0707 
     81 H81        28.1484  -43.6407  -59.9369 H         1 UNK         0.1034 
     82 H82        27.7127  -41.9629  -60.1045 H         1 UNK         0.1034 
     83 H83        25.6676  -42.4049  -58.6073 H         1 UNK         0.0482 
     84 H84        24.0845  -42.1840  -61.7513 H         1 UNK         0.3460 
     85 H85        24.4418  -41.4263  -60.2214 H         1 UNK         0.3460 
     86 H86        26.0451  -45.2865  -59.1880 H         1 UNK         0.2989 
     87 H87        25.9269  -46.1416  -55.7819 H         1 UNK         0.0559 
     88 H88        23.7214  -46.7664  -57.8123 H         1 UNK         0.0848 
     89 H89        23.4945  -46.1029  -56.2027 H         1 UNK         0.0848 
     90 H90        24.1218  -47.7319  -56.3904 H         1 UNK         0.0848 
     91 H91        27.3352  -47.3288  -56.9424 H         1 UNK         0.3144 
     92 H92        27.3298  -48.9251  -60.1264 H         1 UNK         0.0727 
     93 H93        29.7058  -48.2268  -59.9223 H         1 UNK         0.0790 
     94 H94        29.2838  -47.0590  -58.6734 H         1 UNK         0.0790 
     95 H95        28.6830  -46.8535  -60.3122 H         1 UNK         0.0790 
     96 H96        28.2867  -49.0492  -57.2827 H         1 UNK         0.3215 
     97 H97        27.7480  -52.5706  -57.2509 H         1 UNK         0.0863 
     98 H98        30.0899  -52.6630  -56.4348 H         1 UNK         0.0808 
     99 H99        30.4229  -51.0837  -57.1394 H         1 UNK         0.0808 
    100 H100       30.0460  -52.4491  -58.1776 H         1 UNK         0.0808 
    101 H101       28.7863  -50.8513  -55.2400 H         1 UNK         0.3118 
    102 H102       25.5899  -50.2765  -53.6789 H         1 UNK         0.0546 
    103 H103       26.3771  -52.5629  -53.0970 H         1 UNK         0.0828 
    104 H104       26.8637  -51.4022  -51.8727 H         1 UNK         0.0828 
    105 H105       28.0427  -52.0018  -53.0370 H         1 UNK         0.0828 
    106 H106       28.4957  -49.5802  -53.5573 H         1 UNK         0.3005 
    107 H107       27.8283  -46.1745  -53.9403 H         1 UNK         0.1257 
    108 H108       28.4365  -47.4933  -51.2518 H         1 UNK         0.0775 
    109 H109       27.3611  -46.1541  -51.5454 H         1 UNK         0.0775 
    110 H110       28.1186  -43.9494  -52.5989 H         1 UNK         0.0840 
    111 H111       29.4060  -43.0974  -51.7909 H         1 UNK         0.0840 
    112 H112       30.2385  -47.4906  -53.2948 H         1 UNK         0.2987 
    113 H113       30.9405  -48.9444  -56.4305 H         1 UNK         0.0785 
    114 H114       32.9120  -47.3937  -56.4722 H         1 UNK         0.0798 
    115 H115       32.0234  -46.2732  -55.4301 H         1 UNK         0.0798 
    116 H116       31.4435  -46.6225  -57.0447 H         1 UNK         0.0798 
    117 H117       32.6656  -48.5165  -54.2432 H         1 UNK         0.3079 
    118 H118       31.6802  -50.5495  -51.9192 H         1 UNK         0.0794 
    119 H119       32.9149  -52.3957  -54.0358 H         1 UNK         0.0786 
    120 H120       31.4134  -52.6895  -53.1685 H         1 UNK         0.0786 
    121 H121       32.9335  -52.6775  -52.2954 H         1 UNK         0.0786 
    122 H122       34.0327  -49.8113  -53.5756 H         1 UNK         0.3032 
    123 H123       35.9566  -49.1702  -50.6076 H         1 UNK         0.1094 
    124 H124       37.6611  -50.1178  -52.1229 H         1 UNK         0.0794 
    125 H125       36.5747  -51.3847  -51.5813 H         1 UNK         0.0794 
    126 H126       36.4140  -50.7345  -53.2063 H         1 UNK         0.0794 
    127 H127       36.2289  -48.2648  -53.3251 H         1 UNK         0.3016 
@<TRIPOS>BOND
     1    1    2 1    
     2    1   67 1    
     3    1   68 1    
     4    1   69 1    
     5    2    3 2    
     6    2    4 am   BACKBONE|DICT|INTERRES
     7    4    5 1    
     8    4   70 1    
     9    5    6 1    
    10    5   65 1    
    11    5   71 1    
    12    6    7 1    
    13    6   72 1    
    14    6   73 1    
    15    7    8 1    
    16    8    9 1    
    17    8   74 1    
    18    8   75 1    
    19    9   10 ar   
    20    9   14 ar   
    21   10   11 ar   
    22   10   76 1    
    23   11   12 ar   
    24   11   48 1    
    25   12   13 ar   
    26   12   77 1    
    27   13   14 ar   
    28   13   15 1    
    29   14   78 1    
    30   15   16 1    
    31   15   79 1    
    32   15   80 1    
    33   16   17 1    
    34   17   18 1    
    35   17   81 1    
    36   17   82 1    
    37   18   19 1    
    38   18   22 1    
    39   18   83 1    
    40   19   20 am   BACKBONE|DICT|INTERRES
    41   19   21 2    
    42   20   84 1    
    43   20   85 1    
    44   22   23 am   BACKBONE|DICT|INTERRES
    45   22   86 1    
    46   23   24 2    
    47   23   25 1    
    48   25   26 1    
    49   25   27 1    
    50   25   87 1    
    51   26   88 1    
    52   26   89 1    
    53   26   90 1    
    54   27   28 am   BACKBONE|DICT|INTERRES
    55   27   91 1    
    56   28   29 2    
    57   28   30 1    
    58   30   31 1    
    59   30   32 1    
    60   30   92 1    
    61   31   93 1    
    62   31   94 1    
    63   31   95 1    
    64   32   33 am   BACKBONE|DICT|INTERRES
    65   32   96 1    
    66   33   34 2    
    67   33   35 1    
    68   35   36 1    
    69   35   37 1    
    70   35   97 1    
    71   36   98 1    
    72   36   99 1    
    73   36  100 1    
    74   37   38 am   BACKBONE|DICT|INTERRES
    75   37  101 1    
    76   38   39 2    
    77   38   40 1    
    78   40   41 1    
    79   40   42 1    
    80   40  102 1    
    81   41  103 1    
    82   41  104 1    
    83   41  105 1    
    84   42   43 am   BACKBONE|DICT|INTERRES
    85   42  106 1    
    86   43   44 2    
    87   43   45 1    
    88   45   46 1    
    89   45   49 1    
    90   45  107 1    
    91   46   47 1    
    92   46  108 1    
    93   46  109 1    
    94   47   48 1    
    95   48  110 1    
    96   48  111 1    
    97   49   50 am   BACKBONE|DICT|INTERRES
    98   49  112 1    
    99   50   51 2    
   100   50   52 1    
   101   52   53 1    
   102   52   54 1    
   103   52  113 1    
   104   53  114 1    
   105   53  115 1    
   106   53  116 1    
   107   54   55 am   BACKBONE|DICT|INTERRES
   108   54  117 1    
   109   55   56 2    
   110   55   57 1    
   111   57   58 1    
   112   57   59 1    
   113   57  118 1    
   114   58  119 1    
   115   58  120 1    
   116   58  121 1    
   117   59   60 am   BACKBONE|DICT|INTERRES
   118   59  122 1    
   119   60   61 2    
   120   60   62 1    
   121   62   63 1    
   122   62   64 1    
   123   62  123 1    
   124   63  124 1    
   125   63  125 1    
   126   63  126 1    
   127   64   65 am   BACKBONE|DICT|INTERRES
   128   64  127 1    
   129   65   66 2    
@<TRIPOS>SUBSTRUCTURE
     1 UNK         1 GROUP             0       ****    0 ROOT    
