@<TRIPOS>MOLECULE
3R134
127   129    1
SMALL
USER_CHARGES


@<TRIPOS>ATOM
      1 CA         39.1918  -44.9011  -52.1953 C.3       0 UNK        -0.1968 
      2 C          38.2078  -45.5451  -53.1610 C.2       0 UNK         0.4852 
      3 O          38.6001  -46.4088  -53.9469 O.2       0 UNK        -0.5359 
      4 N          36.9351  -45.1289  -53.1093 N.am      1 UNK        -0.4300 
      5 CA         35.8507  -45.6321  -53.9631 C.3       1 UNK         0.0863 
      6 C6         34.5930  -44.7353  -53.8871 C.3       11 UNK        -0.0953 
      7 S7         34.8861  -43.0230  -54.4329 S.3       11 UNK        -0.2369 
      8 C8         33.6162  -42.1318  -53.4764 C.3       11 UNK         0.0226 
      9 C9         32.2131  -42.6656  -53.7399 C.ar      11 UNK        -0.0699 
     10 C10        31.5445  -43.4085  -52.7606 C.ar      11 UNK        -0.0804 
     11 C11        30.2557  -43.9033  -52.9879 C.ar      11 UNK        -0.0871 
     12 C12        29.6457  -43.6530  -54.2251 C.ar      11 UNK        -0.1008 
     13 C13        30.2977  -42.9031  -55.2080 C.ar      11 UNK        -0.0735 
     14 C14        31.5819  -42.4119  -54.9606 C.ar      11 UNK        -0.0945 
     15 C15        29.6013  -42.6153  -56.5286 C.3       11 UNK         0.0169 
     16 S16        29.5792  -44.0883  -57.5901 S.3       11 UNK        -0.2669 
     17 C17        28.5799  -43.4881  -58.9958 C.3       11 UNK        -0.0850 
     18 CA         27.0445  -43.5724  -58.7679 C.3       10 UNK         0.0855 
     19 C          26.2890  -43.1793  -60.0715 C.2       10 UNK         0.5543 
     20 N          25.6327  -44.1039  -60.7632 N.am      10 UNK        -0.7343 
     21 O          26.3056  -42.0144  -60.4606 O.2       10 UNK        -0.5027 
     22 N          26.6530  -44.8641  -58.1865 N.am      10 UNK        -0.4495 
     23 C          25.4495  -45.1875  -57.6961 C.2       10 UNK         0.4903 
     24 O          24.5031  -44.4024  -57.6296 O.2       10 UNK        -0.4860 
     25 CA         25.2878  -46.6302  -57.1735 C.3       9 UNK         0.0227 
     26 CB         23.8618  -47.1843  -57.3724 C.3       9 UNK        -0.1964 
     27 N          26.3002  -47.5582  -57.6982 N.am      9 UNK        -0.4231 
     28 C          26.4870  -47.9222  -58.9769 C.2       9 UNK         0.5014 
     29 O          25.7646  -47.5639  -59.9080 O.2       9 UNK        -0.5270 
     30 CA         27.7170  -48.7875  -59.2816 C.3       8 UNK         0.0284 
     31 CB         28.9288  -47.8886  -59.5865 C.3       8 UNK        -0.1977 
     32 N          28.0522  -49.6833  -58.1705 N.am      8 UNK        -0.4342 
     33 C          28.0034  -51.0196  -58.2305 C.2       8 UNK         0.5039 
     34 O          27.6477  -51.6526  -59.2261 O.2       8 UNK        -0.5547 
     35 CA         28.4446  -51.7929  -56.9778 C.3       7 UNK         0.0281 
     36 CB         29.9768  -51.9102  -56.9260 C.3       7 UNK        -0.1963 
     37 N          27.9592  -51.2199  -55.7213 N.am      7 UNK        -0.4444 
     38 C          26.6838  -51.2563  -55.3098 C.2       7 UNK         0.5104 
     39 O          25.7545  -51.6937  -55.9884 O.2       7 UNK        -0.5100 
     40 CA         26.3996  -50.7403  -53.8910 C.3       6 UNK         0.0396 
     41 CB         26.8264  -51.7821  -52.8433 C.3       6 UNK        -0.1801 
     42 N          27.0994  -49.4810  -53.6374 N.am      6 UNK        -0.4747 
     43 C          26.5281  -48.2697  -53.7021 C.2       6 UNK         0.5012 
     44 O          25.3260  -48.0958  -53.9020 O.2       6 UNK        -0.5003 
     45 CA         27.4370  -47.0312  -53.5245 C.3       5 UNK         0.0782 
     46 C46        27.3270  -46.4766  -52.0801 C.3       11 UNK        -0.0868 
     47 S47        27.7430  -44.7048  -51.9658 S.3       11 UNK        -0.2515 
     48 C48        29.5696  -44.7088  -51.8810 C.3       11 UNK         0.0199 
     49 N          28.8351  -47.2866  -53.8878 N.am      5 UNK        -0.4607 
     50 C          29.2838  -47.6476  -55.0961 C.2       4 UNK         0.5031 
     51 O          28.5628  -47.7881  -56.0833 O.2       4 UNK        -0.5119 
     52 CA         30.7781  -47.9946  -55.1958 C.3       4 UNK         0.0263 
     53 CB         31.5959  -46.7420  -55.5359 C.3       4 UNK        -0.1967 
     54 N          31.3211  -48.6256  -53.9849 N.am      4 UNK        -0.4237 
     55 C          30.8802  -49.7678  -53.4376 C.2       3 UNK         0.4908 
     56 O          29.9251  -50.3979  -53.8950 O.2       3 UNK        -0.5102 
     57 CA         31.5864  -50.2854  -52.1648 C.3       3 UNK         0.0241 
     58 CB         31.3692  -51.7969  -51.9600 C.3       3 UNK        -0.1971 
     59 N          33.0264  -50.0053  -52.1141 N.am      3 UNK        -0.4139 
     60 C          33.5821  -48.8201  -51.8330 C.2       2 UNK         0.5016 
     61 O          32.9185  -47.7994  -51.6354 O.2       2 UNK        -0.5319 
     62 CA         35.1227  -48.7411  -51.7720 C.3       2 UNK         0.0286 
     63 CB         35.8517  -49.9641  -52.3761 C.3       2 UNK        -0.1963 
     64 N          35.6112  -47.4893  -52.3640 N.am      2 UNK        -0.4790 
     65 C          35.4483  -47.0849  -53.6345 C.2       1 UNK         0.5024 
     66 O          34.9695  -47.7893  -54.5243 O.2       1 UNK        -0.4888 
     67 H67        38.7139  -44.1525  -51.5635 H         1 UNK         0.0892 
     68 H68        39.6331  -45.6589  -51.5485 H         1 UNK         0.0892 
     69 H69        39.9952  -44.4145  -52.7478 H         1 UNK         0.0892 
     70 H70        36.6774  -44.3958  -52.4640 H         1 UNK         0.3107 
     71 H71        36.2101  -45.6270  -54.9946 H         1 UNK         0.0773 
     72 H72        33.7980  -45.1343  -54.5183 H         1 UNK         0.0680 
     73 H73        34.1997  -44.7255  -52.8686 H         1 UNK         0.0680 
     74 H74        33.6555  -41.0735  -53.7379 H         1 UNK         0.0650 
     75 H75        33.8615  -42.1935  -52.4151 H         1 UNK         0.0650 
     76 H76        32.0315  -43.6036  -51.8147 H         1 UNK         0.1397 
     77 H77        28.6589  -44.0379  -54.4390 H         1 UNK         0.1363 
     78 H78        32.0958  -41.8364  -55.7185 H         1 UNK         0.1355 
     79 H79        28.5780  -42.2908  -56.3340 H         1 UNK         0.0707 
     80 H80        30.0937  -41.7963  -57.0553 H         1 UNK         0.0707 
     81 H81        28.8754  -42.4637  -59.2315 H         1 UNK         0.1034 
     82 H82        28.8625  -44.0852  -59.8653 H         1 UNK         0.1034 
     83 H83        26.7809  -42.8148  -58.0279 H         1 UNK         0.0482 
     84 H84        25.1459  -43.8403  -61.6052 H         1 UNK         0.3460 
     85 H85        25.6155  -45.0627  -60.4471 H         1 UNK         0.3460 
     86 H86        27.3785  -45.5645  -58.1647 H         1 UNK         0.2989 
     87 H87        25.4661  -46.5702  -56.1008 H         1 UNK         0.0559 
     88 H88        23.5756  -47.2057  -58.4242 H         1 UNK         0.0848 
     89 H89        23.1273  -46.5707  -56.8495 H         1 UNK         0.0848 
     90 H90        23.7737  -48.1966  -56.9777 H         1 UNK         0.0848 
     91 H91        27.0218  -47.8216  -57.0302 H         1 UNK         0.3144 
     92 H92        27.4892  -49.3607  -60.1827 H         1 UNK         0.0727 
     93 H93        29.2176  -47.2845  -58.7253 H         1 UNK         0.0790 
     94 H94        28.7120  -47.2038  -60.4077 H         1 UNK         0.0790 
     95 H95        29.7943  -48.4821  -59.8812 H         1 UNK         0.0790 
     96 H96        28.3433  -49.2396  -57.3042 H         1 UNK         0.3215 
     97 H97        28.0361  -52.8028  -57.0587 H         1 UNK         0.0863 
     98 H98        30.2989  -52.5277  -56.0872 H         1 UNK         0.0808 
     99 H99        30.4549  -50.9359  -56.8246 H         1 UNK         0.0808 
    100 H100       30.3643  -52.3710  -57.8357 H         1 UNK         0.0808 
    101 H101       28.6690  -50.8788  -55.0747 H         1 UNK         0.3118 
    102 H102       25.3206  -50.6013  -53.7962 H         1 UNK         0.0546 
    103 H103       26.3113  -52.7300  -53.0047 H         1 UNK         0.0828 
    104 H104       26.5829  -51.4496  -51.8343 H         1 UNK         0.0828 
    105 H105       27.8975  -51.9837  -52.8789 H         1 UNK         0.0828 
    106 H106       28.1029  -49.5437  -53.5093 H         1 UNK         0.3005 
    107 H107       27.0549  -46.2785  -54.2175 H         1 UNK         0.1257 
    108 H108       27.9390  -47.0522  -51.3831 H         1 UNK         0.0775 
    109 H109       26.3030  -46.5616  -51.7095 H         1 UNK         0.0775 
    110 H110       29.8496  -44.2974  -50.9099 H         1 UNK         0.0840 
    111 H111       29.9559  -45.7275  -51.8948 H         1 UNK         0.0840 
    112 H112       29.5087  -47.2196  -53.1410 H         1 UNK         0.2987 
    113 H113       30.8928  -48.7061  -56.0151 H         1 UNK         0.0785 
    114 H114       31.5411  -45.9946  -54.7437 H         1 UNK         0.0798 
    115 H115       31.2301  -46.2745  -56.4503 H         1 UNK         0.0798 
    116 H116       32.6446  -46.9867  -55.7011 H         1 UNK         0.0798 
    117 H117       32.0788  -48.1455  -53.5123 H         1 UNK         0.3079 
    118 H118       31.1144  -49.7712  -51.3250 H         1 UNK         0.0794 
    119 H119       31.7743  -52.3775  -52.7898 H         1 UNK         0.0786 
    120 H120       30.3079  -52.0367  -51.8820 H         1 UNK         0.0786 
    121 H121       31.8414  -52.1465  -51.0416 H         1 UNK         0.0786 
    122 H122       33.6405  -50.7829  -52.3096 H         1 UNK         0.3032 
    123 H123       35.3753  -48.6977  -50.7112 H         1 UNK         0.1094 
    124 H124       36.9329  -49.8275  -52.3447 H         1 UNK         0.0794 
    125 H125       35.6343  -50.8739  -51.8152 H         1 UNK         0.0794 
    126 H126       35.5743  -50.1393  -53.4162 H         1 UNK         0.0794 
    127 H127       35.9915  -46.8188  -51.7111 H         1 UNK         0.3016 
@<TRIPOS>BOND
     1    1    2 1    
     2    1   67 1    
     3    1   68 1    
     4    1   69 1    
     5    2    3 2    
     6    2    4 am   BACKBONE|DICT|INTERRES
     7    4    5 1    
     8    4   70 1    
     9    5    6 1    
    10    5   65 1    
    11    5   71 1    
    12    6    7 1    
    13    6   72 1    
    14    6   73 1    
    15    7    8 1    
    16    8    9 1    
    17    8   74 1    
    18    8   75 1    
    19    9   10 ar   
    20    9   14 ar   
    21   10   11 ar   
    22   10   76 1    
    23   11   12 ar   
    24   11   48 1    
    25   12   13 ar   
    26   12   77 1    
    27   13   14 ar   
    28   13   15 1    
    29   14   78 1    
    30   15   16 1    
    31   15   79 1    
    32   15   80 1    
    33   16   17 1    
    34   17   18 1    
    35   17   81 1    
    36   17   82 1    
    37   18   19 1    
    38   18   22 1    
    39   18   83 1    
    40   19   20 am   BACKBONE|DICT|INTERRES
    41   19   21 2    
    42   20   84 1    
    43   20   85 1    
    44   22   23 am   BACKBONE|DICT|INTERRES
    45   22   86 1    
    46   23   24 2    
    47   23   25 1    
    48   25   26 1    
    49   25   27 1    
    50   25   87 1    
    51   26   88 1    
    52   26   89 1    
    53   26   90 1    
    54   27   28 am   BACKBONE|DICT|INTERRES
    55   27   91 1    
    56   28   29 2    
    57   28   30 1    
    58   30   31 1    
    59   30   32 1    
    60   30   92 1    
    61   31   93 1    
    62   31   94 1    
    63   31   95 1    
    64   32   33 am   BACKBONE|DICT|INTERRES
    65   32   96 1    
    66   33   34 2    
    67   33   35 1    
    68   35   36 1    
    69   35   37 1    
    70   35   97 1    
    71   36   98 1    
    72   36   99 1    
    73   36  100 1    
    74   37   38 am   BACKBONE|DICT|INTERRES
    75   37  101 1    
    76   38   39 2    
    77   38   40 1    
    78   40   41 1    
    79   40   42 1    
    80   40  102 1    
    81   41  103 1    
    82   41  104 1    
    83   41  105 1    
    84   42   43 am   BACKBONE|DICT|INTERRES
    85   42  106 1    
    86   43   44 2    
    87   43   45 1    
    88   45   46 1    
    89   45   49 1    
    90   45  107 1    
    91   46   47 1    
    92   46  108 1    
    93   46  109 1    
    94   47   48 1    
    95   48  110 1    
    96   48  111 1    
    97   49   50 am   BACKBONE|DICT|INTERRES
    98   49  112 1    
    99   50   51 2    
   100   50   52 1    
   101   52   53 1    
   102   52   54 1    
   103   52  113 1    
   104   53  114 1    
   105   53  115 1    
   106   53  116 1    
   107   54   55 am   BACKBONE|DICT|INTERRES
   108   54  117 1    
   109   55   56 2    
   110   55   57 1    
   111   57   58 1    
   112   57   59 1    
   113   57  118 1    
   114   58  119 1    
   115   58  120 1    
   116   58  121 1    
   117   59   60 am   BACKBONE|DICT|INTERRES
   118   59  122 1    
   119   60   61 2    
   120   60   62 1    
   121   62   63 1    
   122   62   64 1    
   123   62  123 1    
   124   63  124 1    
   125   63  125 1    
   126   63  126 1    
   127   64   65 am   BACKBONE|DICT|INTERRES
   128   64  127 1    
   129   65   66 2    
@<TRIPOS>SUBSTRUCTURE
     1 UNK         1 GROUP             0       ****    0 ROOT    
