@<TRIPOS>MOLECULE
3R134
127   129    1
SMALL
USER_CHARGES


@<TRIPOS>ATOM
      1 CA         33.9434  -40.7832  -57.0631 C.3       0 UNK        -0.1968 
      2 C          33.3914  -41.7267  -56.0047 C.2       0 UNK         0.4852 
      3 O          32.1914  -41.6999  -55.7375 O.2       0 UNK        -0.5359 
      4 N          34.2607  -42.5535  -55.4126 N.am      1 UNK        -0.4300 
      5 CA         33.9396  -43.5702  -54.4022 C.3       1 UNK         0.0863 
      6 C6         34.3348  -43.1157  -52.9673 C.3       11 UNK        -0.0953 
      7 S7         33.4103  -41.6512  -52.3900 S.3       11 UNK        -0.2369 
      8 C8         32.3205  -42.3596  -51.1134 C.3       11 UNK         0.0226 
      9 C9         31.3436  -43.3751  -51.6887 C.ar      11 UNK        -0.0699 
     10 C10        31.5347  -44.7412  -51.4651 C.ar      11 UNK        -0.0804 
     11 C11        30.6493  -45.6789  -52.0026 C.ar      11 UNK        -0.0871 
     12 C12        29.5519  -45.2411  -52.7486 C.ar      11 UNK        -0.1008 
     13 C13        29.3572  -43.8771  -52.9929 C.ar      11 UNK        -0.0735 
     14 C14        30.2534  -42.9494  -52.4528 C.ar      11 UNK        -0.0945 
     15 C15        28.1934  -43.3952  -53.8531 C.3       11 UNK         0.0169 
     16 S16        28.0516  -44.2864  -55.4388 S.3       11 UNK        -0.2669 
     17 C17        29.7467  -44.1360  -56.1089 C.3       11 UNK        -0.0850 
     18 CA         29.8147  -44.2403  -57.6563 C.3       10 UNK         0.0855 
     19 C          31.2834  -44.2096  -58.1576 C.2       10 UNK         0.5543 
     20 N          31.6128  -43.3280  -59.0905 N.am      10 UNK        -0.7343 
     21 O          32.1310  -44.9640  -57.6828 O.2       10 UNK        -0.5027 
     22 N          29.0985  -45.4300  -58.1261 N.am      10 UNK        -0.4495 
     23 C          28.7242  -45.7092  -59.3803 C.2       10 UNK         0.4903 
     24 O          28.9996  -45.0068  -60.3529 O.2       10 UNK        -0.4860 
     25 CA         27.8622  -46.9755  -59.5831 C.3       9 UNK         0.0227 
     26 CB         28.6094  -48.0413  -60.4025 C.3       9 UNK        -0.1964 
     27 N          27.3925  -47.5647  -58.3206 N.am      9 UNK        -0.4231 
     28 C          26.3894  -47.0686  -57.5802 C.2       9 UNK         0.5014 
     29 O          25.6807  -46.1272  -57.9415 O.2       9 UNK        -0.5270 
     30 CA         26.1801  -47.7010  -56.1895 C.3       8 UNK         0.0284 
     31 CB         24.8023  -47.3678  -55.5787 C.3       8 UNK        -0.1977 
     32 N          26.4344  -49.1455  -56.1458 N.am      8 UNK        -0.4342 
     33 C          25.7768  -50.1089  -56.8096 C.2       8 UNK         0.5039 
     34 O          24.8940  -49.9051  -57.6434 O.2       8 UNK        -0.5547 
     35 CA         26.1564  -51.5540  -56.4527 C.3       7 UNK         0.0281 
     36 CB         27.4258  -51.9911  -57.2038 C.3       7 UNK        -0.1963 
     37 N          26.3487  -51.7066  -55.0075 N.am      7 UNK        -0.4444 
     38 C          25.3484  -51.8478  -54.1239 C.2       7 UNK         0.5104 
     39 O          24.1644  -51.9606  -54.4428 O.2       7 UNK        -0.5100 
     40 CA         25.7244  -51.8688  -52.6299 C.3       6 UNK         0.0396 
     41 CB         25.9489  -53.3131  -52.1546 C.3       6 UNK        -0.1801 
     42 N          26.9153  -51.0704  -52.3307 N.am      6 UNK        -0.4747 
     43 C          26.9543  -49.7288  -52.3099 C.2       6 UNK         0.5012 
     44 O          25.9601  -49.0151  -52.4367 O.2       6 UNK        -0.5003 
     45 CA         28.3447  -49.0723  -52.1630 C.3       5 UNK         0.0782 
     46 C46        28.5669  -48.5446  -50.7218 C.3       11 UNK        -0.0868 
     47 S47        30.2162  -47.8536  -50.3053 S.3       11 UNK        -0.2515 
     48 C48        30.9285  -47.1628  -51.8385 C.3       11 UNK         0.0199 
     49 N          29.4300  -49.9513  -52.6221 N.am      5 UNK        -0.4607 
     50 C          29.6349  -50.2483  -53.9097 C.2       4 UNK         0.5031 
     51 O          28.8444  -49.9492  -54.8095 O.2       4 UNK        -0.5119 
     52 CA         30.9210  -51.0110  -54.2573 C.3       4 UNK         0.0263 
     53 CB         30.6120  -52.4945  -54.5138 C.3       4 UNK        -0.1967 
     54 N          31.5293  -50.4230  -55.4511 N.am      4 UNK        -0.4237 
     55 C          32.1117  -49.2164  -55.4765 C.2       3 UNK         0.4908 
     56 O          32.3745  -48.5581  -54.4678 O.2       3 UNK        -0.5102 
     57 CA         32.3584  -48.6274  -56.8740 C.3       3 UNK         0.0241 
     58 CB         31.0281  -48.1413  -57.4671 C.3       3 UNK        -0.1971 
     59 N          33.2921  -47.5012  -56.8555 N.am      3 UNK        -0.4139 
     60 C          34.6143  -47.6075  -56.6773 C.2       2 UNK         0.5016 
     61 O          35.2056  -48.6788  -56.5311 O.2       2 UNK        -0.5319 
     62 CA         35.4216  -46.3008  -56.6946 C.3       2 UNK         0.0286 
     63 CB         35.8342  -45.9467  -58.1330 C.3       2 UNK        -0.1963 
     64 N          34.6925  -45.1690  -56.1164 N.am      2 UNK        -0.4790 
     65 C          34.6325  -44.8922  -54.8054 C.2       1 UNK         0.5024 
     66 O          35.1516  -45.6070  -53.9464 O.2       1 UNK        -0.4888 
     67 H67        35.0112  -40.9284  -57.2255 H         1 UNK         0.0892 
     68 H68        33.4310  -40.9448  -58.0112 H         1 UNK         0.0892 
     69 H69        33.7834  -39.7485  -56.7613 H         1 UNK         0.0892 
     70 H70        35.2331  -42.5254  -55.6875 H         1 UNK         0.3107 
     71 H71        32.8676  -43.7806  -54.4136 H         1 UNK         0.0773 
     72 H72        34.1862  -43.9227  -52.2487 H         1 UNK         0.0680 
     73 H73        35.3988  -42.8763  -52.9276 H         1 UNK         0.0680 
     74 H74        31.7618  -41.5508  -50.6405 H         1 UNK         0.0650 
     75 H75        32.9313  -42.8080  -50.3283 H         1 UNK         0.0650 
     76 H76        32.3857  -45.0785  -50.8891 H         1 UNK         0.1397 
     77 H77        28.8678  -45.9603  -53.1750 H         1 UNK         0.1363 
     78 H78        30.1164  -41.8928  -52.6389 H         1 UNK         0.1355 
     79 H79        27.2652  -43.5191  -53.2942 H         1 UNK         0.0707 
     80 H80        28.2869  -42.3290  -54.0662 H         1 UNK         0.0707 
     81 H81        30.1567  -43.1795  -55.7859 H         1 UNK         0.1034 
     82 H82        30.3652  -44.9039  -55.6395 H         1 UNK         0.1034 
     83 H83        29.2930  -43.3723  -58.0646 H         1 UNK         0.0482 
     84 H84        30.9162  -42.7250  -59.4992 H         1 UNK         0.3460 
     85 H85        32.5606  -43.3020  -59.4288 H         1 UNK         0.3460 
     86 H86        28.8001  -46.0591  -57.3987 H         1 UNK         0.2989 
     87 H87        26.9886  -46.6709  -60.1634 H         1 UNK         0.0559 
     88 H88        29.4892  -48.4202  -59.8856 H         1 UNK         0.0848 
     89 H89        28.9460  -47.6337  -61.3569 H         1 UNK         0.0848 
     90 H90        27.9635  -48.8902  -60.6276 H         1 UNK         0.0848 
     91 H91        27.9014  -48.3605  -57.9646 H         1 UNK         0.3144 
     92 H92        26.9345  -47.2505  -55.5428 H         1 UNK         0.0727 
     93 H93        24.6908  -47.8081  -54.5879 H         1 UNK         0.0790 
     94 H94        23.9850  -47.7324  -56.2018 H         1 UNK         0.0790 
     95 H95        24.6735  -46.2903  -55.4687 H         1 UNK         0.0790 
     96 H96        27.2016  -49.4365  -55.5422 H         1 UNK         0.3215 
     97 H97        25.3380  -52.2046  -56.7700 H         1 UNK         0.0863 
     98 H98        28.2856  -51.3672  -56.9599 H         1 UNK         0.0808 
     99 H99        27.2770  -51.9280  -58.2826 H         1 UNK         0.0808 
    100 H100       27.6854  -53.0246  -56.9741 H         1 UNK         0.0808 
    101 H101       27.2864  -51.5696  -54.6572 H         1 UNK         0.3118 
    102 H102       24.8830  -51.4547  -52.0700 H         1 UNK         0.0546 
    103 H103       26.1473  -53.3525  -51.0834 H         1 UNK         0.0828 
    104 H104       26.7863  -53.7851  -52.6701 H         1 UNK         0.0828 
    105 H105       25.0656  -53.9258  -52.3408 H         1 UNK         0.0828 
    106 H106       27.7814  -51.5716  -52.1941 H         1 UNK         0.3005 
    107 H107       28.3222  -48.2081  -52.8293 H         1 UNK         0.1257 
    108 H108       28.3768  -49.3439  -50.0026 H         1 UNK         0.0775 
    109 H109       27.8296  -47.7704  -50.5002 H         1 UNK         0.0775 
    110 H110       32.0079  -47.3206  -51.8075 H         1 UNK         0.0840 
    111 H111       30.5984  -47.6890  -52.7287 H         1 UNK         0.0840 
    112 H112       30.1074  -50.2304  -51.9264 H         1 UNK         0.2987 
    113 H113       31.6273  -50.9332  -53.4277 H         1 UNK         0.0785 
    114 H114       30.1745  -52.9615  -53.6304 H         1 UNK         0.0798 
    115 H115       29.9077  -52.6279  -55.3359 H         1 UNK         0.0798 
    116 H116       31.5177  -53.0506  -54.7563 H         1 UNK         0.0798 
    117 H117       31.3187  -50.8764  -56.3280 H         1 UNK         0.3079 
    118 H118       32.7728  -49.4074  -57.5164 H         1 UNK         0.0794 
    119 H119       30.5456  -47.4194  -56.8074 H         1 UNK         0.0786 
    120 H120       30.3327  -48.9687  -57.6116 H         1 UNK         0.0786 
    121 H121       31.1809  -47.6635  -58.4348 H         1 UNK         0.0786 
    122 H122       32.8954  -46.5747  -56.9878 H         1 UNK         0.3032 
    123 H123       36.3315  -46.4710  -56.1138 H         1 UNK         0.1094 
    124 H124       34.9669  -45.7494  -58.7649 H         1 UNK         0.0794 
    125 H125       36.4747  -45.0649  -58.1563 H         1 UNK         0.0794 
    126 H126       36.3930  -46.7640  -58.5912 H         1 UNK         0.0794 
    127 H127       34.1665  -44.5884  -56.7581 H         1 UNK         0.3016 
@<TRIPOS>BOND
     1    1    2 1    
     2    1   67 1    
     3    1   68 1    
     4    1   69 1    
     5    2    3 2    
     6    2    4 am   BACKBONE|DICT|INTERRES
     7    4    5 1    
     8    4   70 1    
     9    5    6 1    
    10    5   65 1    
    11    5   71 1    
    12    6    7 1    
    13    6   72 1    
    14    6   73 1    
    15    7    8 1    
    16    8    9 1    
    17    8   74 1    
    18    8   75 1    
    19    9   10 ar   
    20    9   14 ar   
    21   10   11 ar   
    22   10   76 1    
    23   11   12 ar   
    24   11   48 1    
    25   12   13 ar   
    26   12   77 1    
    27   13   14 ar   
    28   13   15 1    
    29   14   78 1    
    30   15   16 1    
    31   15   79 1    
    32   15   80 1    
    33   16   17 1    
    34   17   18 1    
    35   17   81 1    
    36   17   82 1    
    37   18   19 1    
    38   18   22 1    
    39   18   83 1    
    40   19   20 am   BACKBONE|DICT|INTERRES
    41   19   21 2    
    42   20   84 1    
    43   20   85 1    
    44   22   23 am   BACKBONE|DICT|INTERRES
    45   22   86 1    
    46   23   24 2    
    47   23   25 1    
    48   25   26 1    
    49   25   27 1    
    50   25   87 1    
    51   26   88 1    
    52   26   89 1    
    53   26   90 1    
    54   27   28 am   BACKBONE|DICT|INTERRES
    55   27   91 1    
    56   28   29 2    
    57   28   30 1    
    58   30   31 1    
    59   30   32 1    
    60   30   92 1    
    61   31   93 1    
    62   31   94 1    
    63   31   95 1    
    64   32   33 am   BACKBONE|DICT|INTERRES
    65   32   96 1    
    66   33   34 2    
    67   33   35 1    
    68   35   36 1    
    69   35   37 1    
    70   35   97 1    
    71   36   98 1    
    72   36   99 1    
    73   36  100 1    
    74   37   38 am   BACKBONE|DICT|INTERRES
    75   37  101 1    
    76   38   39 2    
    77   38   40 1    
    78   40   41 1    
    79   40   42 1    
    80   40  102 1    
    81   41  103 1    
    82   41  104 1    
    83   41  105 1    
    84   42   43 am   BACKBONE|DICT|INTERRES
    85   42  106 1    
    86   43   44 2    
    87   43   45 1    
    88   45   46 1    
    89   45   49 1    
    90   45  107 1    
    91   46   47 1    
    92   46  108 1    
    93   46  109 1    
    94   47   48 1    
    95   48  110 1    
    96   48  111 1    
    97   49   50 am   BACKBONE|DICT|INTERRES
    98   49  112 1    
    99   50   51 2    
   100   50   52 1    
   101   52   53 1    
   102   52   54 1    
   103   52  113 1    
   104   53  114 1    
   105   53  115 1    
   106   53  116 1    
   107   54   55 am   BACKBONE|DICT|INTERRES
   108   54  117 1    
   109   55   56 2    
   110   55   57 1    
   111   57   58 1    
   112   57   59 1    
   113   57  118 1    
   114   58  119 1    
   115   58  120 1    
   116   58  121 1    
   117   59   60 am   BACKBONE|DICT|INTERRES
   118   59  122 1    
   119   60   61 2    
   120   60   62 1    
   121   62   63 1    
   122   62   64 1    
   123   62  123 1    
   124   63  124 1    
   125   63  125 1    
   126   63  126 1    
   127   64   65 am   BACKBONE|DICT|INTERRES
   128   64  127 1    
   129   65   66 2    
@<TRIPOS>SUBSTRUCTURE
     1 UNK         1 GROUP             0       ****    0 ROOT    
