@<TRIPOS>MOLECULE
3R134
127   129    1
SMALL
USER_CHARGES


@<TRIPOS>ATOM
      1 CA         36.5088  -45.7994  -56.3115 C.3       0 UNK        -0.1968 
      2 C          36.1714  -45.3800  -54.8881 C.2       0 UNK         0.4852 
      3 O          37.0646  -45.3403  -54.0414 O.2       0 UNK        -0.5359 
      4 N          34.8931  -45.0670  -54.6299 N.am      1 UNK        -0.4300 
      5 CA         34.3362  -44.6667  -53.3309 C.3       1 UNK         0.0863 
      6 C6         34.8514  -43.2753  -52.8693 C.3       11 UNK        -0.0953 
      7 S7         33.6396  -42.3653  -51.8532 S.3       11 UNK        -0.2369 
      8 C8         32.6615  -41.4822  -53.1167 C.3       11 UNK         0.0226 
      9 C9         31.6450  -42.4027  -53.7774 C.ar      11 UNK        -0.0699 
     10 C10        31.8682  -42.9107  -55.0626 C.ar      11 UNK        -0.0804 
     11 C11        30.9670  -43.8176  -55.6302 C.ar      11 UNK        -0.0871 
     12 C12        29.8299  -44.1955  -54.9113 C.ar      11 UNK        -0.1008 
     13 C13        29.5691  -43.6565  -53.6489 C.ar      11 UNK        -0.0735 
     14 C14        30.4845  -42.7640  -53.0854 C.ar      11 UNK        -0.0945 
     15 C15        28.3217  -44.0675  -52.8770 C.3       11 UNK         0.0169 
     16 S16        26.8603  -43.0401  -53.2492 S.3       11 UNK        -0.2669 
     17 C17        26.5179  -43.3753  -55.0151 C.3       11 UNK        -0.0850 
     18 CA         25.7818  -44.7266  -55.2964 C.3       10 UNK         0.0855 
     19 C          24.2314  -44.6411  -55.1485 C.2       10 UNK         0.5543 
     20 N          23.7382  -43.9448  -54.1338 N.am      10 UNK        -0.7343 
     21 O          23.4679  -45.2243  -55.9165 O.2       10 UNK        -0.5027 
     22 N          26.2143  -45.3515  -56.5639 N.am      10 UNK        -0.4495 
     23 C          26.1170  -44.7719  -57.7692 C.2       10 UNK         0.4903 
     24 O          25.6996  -43.6238  -57.9304 O.2       10 UNK        -0.4860 
     25 CA         26.5505  -45.5554  -59.0202 C.3       9 UNK         0.0227 
     26 CB         27.6579  -44.8003  -59.7818 C.3       9 UNK        -0.1964 
     27 N          27.0003  -46.9335  -58.7836 N.am      9 UNK        -0.4231 
     28 C          26.7515  -47.9389  -59.6377 C.2       9 UNK         0.5014 
     29 O          25.9575  -47.8608  -60.5773 O.2       9 UNK        -0.5270 
     30 CA         27.5593  -49.2367  -59.4691 C.3       8 UNK         0.0284 
     31 CB         29.0097  -49.0379  -59.9411 C.3       8 UNK        -0.1977 
     32 N          27.5455  -49.7643  -58.1064 N.am      8 UNK        -0.4342 
     33 C          26.4889  -50.3611  -57.5376 C.2       8 UNK         0.5039 
     34 O          25.4118  -50.5409  -58.1076 O.2       8 UNK        -0.5547 
     35 CA         26.6580  -50.8438  -56.0855 C.3       7 UNK         0.0281 
     36 CB         27.2939  -52.2428  -56.0503 C.3       7 UNK        -0.1963 
     37 N          27.4513  -49.9260  -55.2663 N.am      7 UNK        -0.4444 
     38 C          27.0924  -48.6678  -54.9798 C.2       7 UNK         0.5104 
     39 O          26.0242  -48.1587  -55.3171 O.2       7 UNK        -0.5100 
     40 CA         28.1303  -47.8020  -54.2546 C.3       6 UNK         0.0396 
     41 CB         28.1361  -48.0728  -52.7432 C.3       6 UNK        -0.1801 
     42 N          29.4774  -47.9460  -54.8003 N.am      6 UNK        -0.4747 
     43 C          29.8305  -47.6351  -56.0561 C.2       6 UNK         0.5012 
     44 O          29.0537  -47.1747  -56.8934 O.2       6 UNK        -0.5003 
     45 CA         31.2930  -47.9217  -56.4378 C.3       5 UNK         0.0782 
     46 C46        32.2351  -46.8071  -55.9088 C.3       11 UNK        -0.0868 
     47 S47        32.6171  -45.5137  -57.1352 S.3       11 UNK        -0.2515 
     48 C48        31.1977  -44.3735  -57.0294 C.3       11 UNK         0.0199 
     49 N          31.6936  -49.2460  -55.9527 N.am      5 UNK        -0.4607 
     50 C          31.2008  -50.4103  -56.3960 C.2       4 UNK         0.5031 
     51 O          30.3939  -50.5040  -57.3198 O.2       4 UNK        -0.5119 
     52 CA         31.6533  -51.6779  -55.6502 C.3       4 UNK         0.0263 
     53 CB         32.9903  -52.1862  -56.2119 C.3       4 UNK        -0.1967 
     54 N          31.7733  -51.4721  -54.2026 N.am      4 UNK        -0.4237 
     55 C          30.7353  -51.2260  -53.3898 C.2       3 UNK         0.4908 
     56 O          29.5646  -51.2002  -53.7692 O.2       3 UNK        -0.5102 
     57 CA         31.0543  -50.9087  -51.9160 C.3       3 UNK         0.0241 
     58 CB         31.1582  -52.2066  -51.0993 C.3       3 UNK        -0.1971 
     59 N          32.2609  -50.0953  -51.7040 N.am      3 UNK        -0.4139 
     60 C          32.4994  -48.9040  -52.2705 C.2       2 UNK         0.5016 
     61 O          31.7456  -48.3807  -53.0969 O.2       2 UNK        -0.5319 
     62 CA         33.8030  -48.1880  -51.8829 C.3       2 UNK         0.0286 
     63 CB         35.0463  -49.0399  -52.2029 C.3       2 UNK        -0.1963 
     64 N          33.8649  -46.9446  -52.6427 N.am      2 UNK        -0.4790 
     65 C          34.4616  -45.8019  -52.2897 C.2       1 UNK         0.5024 
     66 O          35.0880  -45.6489  -51.2395 O.2       1 UNK        -0.4888 
     67 H67        35.6478  -45.7322  -56.9756 H         1 UNK         0.0892 
     68 H68        37.2947  -45.1610  -56.7141 H         1 UNK         0.0892 
     69 H69        36.8663  -46.8286  -56.3236 H         1 UNK         0.0892 
     70 H70        34.2232  -45.1139  -55.3872 H         1 UNK         0.3107 
     71 H71        33.2656  -44.5826  -53.5076 H         1 UNK         0.0773 
     72 H72        35.0843  -42.6544  -53.7357 H         1 UNK         0.0680 
     73 H73        35.7897  -43.3616  -52.3187 H         1 UNK         0.0680 
     74 H74        33.3248  -41.0322  -53.8567 H         1 UNK         0.0650 
     75 H75        32.1364  -40.6551  -52.6367 H         1 UNK         0.0650 
     76 H76        32.7553  -42.6232  -55.6103 H         1 UNK         0.1397 
     77 H77        29.1307  -44.8964  -55.3445 H         1 UNK         0.1363 
     78 H78        30.3051  -42.3636  -52.0968 H         1 UNK         0.1355 
     79 H79        28.5196  -43.9998  -51.8062 H         1 UNK         0.0707 
     80 H80        28.0867  -45.1119  -53.0587 H         1 UNK         0.0707 
     81 H81        25.9356  -42.5403  -55.4096 H         1 UNK         0.1034 
     82 H82        27.4548  -43.3186  -55.5646 H         1 UNK         0.1034 
     83 H83        26.0798  -45.4383  -54.5295 H         1 UNK         0.0482 
     84 H84        22.7395  -43.8868  -54.0099 H         1 UNK         0.3460 
     85 H85        24.3583  -43.4729  -53.4920 H         1 UNK         0.3460 
     86 H86        26.4603  -46.3309  -56.5036 H         1 UNK         0.2989 
     87 H87        25.6614  -45.5688  -59.6539 H         1 UNK         0.0559 
     88 H88        27.3609  -43.7748  -60.0052 H         1 UNK         0.0848 
     89 H89        27.8839  -45.2806  -60.7339 H         1 UNK         0.0848 
     90 H90        28.5806  -44.7548  -59.2029 H         1 UNK         0.0848 
     91 H91        27.7012  -47.0701  -58.0545 H         1 UNK         0.3144 
     92 H92        27.1068  -49.9888  -60.1193 H         1 UNK         0.0727 
     93 H93        29.5617  -49.9778  -59.9289 H         1 UNK         0.0790 
     94 H94        29.5488  -48.3261  -59.3160 H         1 UNK         0.0790 
     95 H95        29.0388  -48.6598  -60.9639 H         1 UNK         0.0790 
     96 H96        28.4151  -49.7140  -57.5876 H         1 UNK         0.3215 
     97 H97        25.6626  -50.9087  -55.6411 H         1 UNK         0.0863 
     98 H98        27.3489  -52.6276  -55.0318 H         1 UNK         0.0808 
     99 H99        28.3049  -52.2369  -56.4596 H         1 UNK         0.0808 
    100 H100       26.7080  -52.9533  -56.6350 H         1 UNK         0.0808 
    101 H101       28.3267  -50.2820  -54.8881 H         1 UNK         0.3118 
    102 H102       27.8463  -46.7668  -54.4189 H         1 UNK         0.0546 
    103 H103       28.3685  -49.1135  -52.5200 H         1 UNK         0.0828 
    104 H104       27.1597  -47.8579  -52.3072 H         1 UNK         0.0828 
    105 H105       28.8676  -47.4491  -52.2290 H         1 UNK         0.0828 
    106 H106       30.2018  -48.2775  -54.1664 H         1 UNK         0.3005 
    107 H107       31.3481  -47.9522  -57.5284 H         1 UNK         0.1257 
    108 H108       33.2000  -47.2451  -55.6491 H         1 UNK         0.0775 
    109 H109       31.8712  -46.3539  -54.9847 H         1 UNK         0.0775 
    110 H110       31.3688  -43.5425  -57.7151 H         1 UNK         0.0840 
    111 H111       30.3057  -44.8807  -57.3976 H         1 UNK         0.0840 
    112 H112       32.2779  -49.2592  -55.1295 H         1 UNK         0.2987 
    113 H113       30.8969  -52.4473  -55.8200 H         1 UNK         0.0785 
    114 H114       32.9185  -52.3638  -57.2860 H         1 UNK         0.0798 
    115 H115       33.2822  -53.1290  -55.7489 H         1 UNK         0.0798 
    116 H116       33.7971  -51.4694  -56.0535 H         1 UNK         0.0798 
    117 H117       32.7024  -51.4853  -53.8083 H         1 UNK         0.3079 
    118 H118       30.2134  -50.3333  -51.5248 H         1 UNK         0.0794 
    119 H119       31.2573  -51.9989  -50.0337 H         1 UNK         0.0786 
    120 H120       32.0132  -52.8107  -51.4055 H         1 UNK         0.0786 
    121 H121       30.2642  -52.8195  -51.2247 H         1 UNK         0.0786 
    122 H122       32.9326  -50.4571  -51.0422 H         1 UNK         0.3032 
    123 H123       33.7645  -47.9642  -50.8144 H         1 UNK         0.1094 
    124 H124       35.0807  -49.3237  -53.2556 H         1 UNK         0.0794 
    125 H125       35.9644  -48.4969  -51.9773 H         1 UNK         0.0794 
    126 H126       35.0675  -49.9568  -51.6132 H         1 UNK         0.0794 
    127 H127       33.2828  -46.9598  -53.4688 H         1 UNK         0.3016 
@<TRIPOS>BOND
     1    1    2 1    
     2    1   67 1    
     3    1   68 1    
     4    1   69 1    
     5    2    3 2    
     6    2    4 am   BACKBONE|DICT|INTERRES
     7    4    5 1    
     8    4   70 1    
     9    5    6 1    
    10    5   65 1    
    11    5   71 1    
    12    6    7 1    
    13    6   72 1    
    14    6   73 1    
    15    7    8 1    
    16    8    9 1    
    17    8   74 1    
    18    8   75 1    
    19    9   10 ar   
    20    9   14 ar   
    21   10   11 ar   
    22   10   76 1    
    23   11   12 ar   
    24   11   48 1    
    25   12   13 ar   
    26   12   77 1    
    27   13   14 ar   
    28   13   15 1    
    29   14   78 1    
    30   15   16 1    
    31   15   79 1    
    32   15   80 1    
    33   16   17 1    
    34   17   18 1    
    35   17   81 1    
    36   17   82 1    
    37   18   19 1    
    38   18   22 1    
    39   18   83 1    
    40   19   20 am   BACKBONE|DICT|INTERRES
    41   19   21 2    
    42   20   84 1    
    43   20   85 1    
    44   22   23 am   BACKBONE|DICT|INTERRES
    45   22   86 1    
    46   23   24 2    
    47   23   25 1    
    48   25   26 1    
    49   25   27 1    
    50   25   87 1    
    51   26   88 1    
    52   26   89 1    
    53   26   90 1    
    54   27   28 am   BACKBONE|DICT|INTERRES
    55   27   91 1    
    56   28   29 2    
    57   28   30 1    
    58   30   31 1    
    59   30   32 1    
    60   30   92 1    
    61   31   93 1    
    62   31   94 1    
    63   31   95 1    
    64   32   33 am   BACKBONE|DICT|INTERRES
    65   32   96 1    
    66   33   34 2    
    67   33   35 1    
    68   35   36 1    
    69   35   37 1    
    70   35   97 1    
    71   36   98 1    
    72   36   99 1    
    73   36  100 1    
    74   37   38 am   BACKBONE|DICT|INTERRES
    75   37  101 1    
    76   38   39 2    
    77   38   40 1    
    78   40   41 1    
    79   40   42 1    
    80   40  102 1    
    81   41  103 1    
    82   41  104 1    
    83   41  105 1    
    84   42   43 am   BACKBONE|DICT|INTERRES
    85   42  106 1    
    86   43   44 2    
    87   43   45 1    
    88   45   46 1    
    89   45   49 1    
    90   45  107 1    
    91   46   47 1    
    92   46  108 1    
    93   46  109 1    
    94   47   48 1    
    95   48  110 1    
    96   48  111 1    
    97   49   50 am   BACKBONE|DICT|INTERRES
    98   49  112 1    
    99   50   51 2    
   100   50   52 1    
   101   52   53 1    
   102   52   54 1    
   103   52  113 1    
   104   53  114 1    
   105   53  115 1    
   106   53  116 1    
   107   54   55 am   BACKBONE|DICT|INTERRES
   108   54  117 1    
   109   55   56 2    
   110   55   57 1    
   111   57   58 1    
   112   57   59 1    
   113   57  118 1    
   114   58  119 1    
   115   58  120 1    
   116   58  121 1    
   117   59   60 am   BACKBONE|DICT|INTERRES
   118   59  122 1    
   119   60   61 2    
   120   60   62 1    
   121   62   63 1    
   122   62   64 1    
   123   62  123 1    
   124   63  124 1    
   125   63  125 1    
   126   63  126 1    
   127   64   65 am   BACKBONE|DICT|INTERRES
   128   64  127 1    
   129   65   66 2    
@<TRIPOS>SUBSTRUCTURE
     1 UNK         1 GROUP             0       ****    0 ROOT    
