@<TRIPOS>MOLECULE
3R134
127   129    1
SMALL
USER_CHARGES


@<TRIPOS>ATOM
      1 CA         36.9287  -45.1008  -52.7199 C.3       0 UNK        -0.1968 
      2 C          35.6255  -45.8703  -52.5733 C.2       0 UNK         0.4852 
      3 O          35.3937  -46.8272  -53.3104 O.2       0 UNK        -0.5359 
      4 N          34.7793  -45.4795  -51.6107 N.am      1 UNK        -0.4300 
      5 CA         33.4320  -46.0253  -51.3771 C.3       1 UNK         0.0863 
      6 C6         32.5846  -45.1106  -50.4561 C.3       11 UNK        -0.0953 
      7 S7         32.5466  -43.3613  -50.9871 S.3       11 UNK        -0.2369 
      8 C8         30.9241  -43.2196  -51.8195 C.3       11 UNK         0.0226 
      9 C9         30.9336  -43.3564  -53.3455 C.ar      11 UNK        -0.0699 
     10 C10        32.0188  -43.8766  -54.0652 C.ar      11 UNK        -0.0804 
     11 C11        31.9738  -43.9796  -55.4588 C.ar      11 UNK        -0.0871 
     12 C12        30.8361  -43.5439  -56.1434 C.ar      11 UNK        -0.1008 
     13 C13        29.7498  -43.0106  -55.4446 C.ar      11 UNK        -0.0735 
     14 C14        29.8028  -42.9299  -54.0502 C.ar      11 UNK        -0.0945 
     15 C15        28.5440  -42.4675  -56.1971 C.3       11 UNK         0.0169 
     16 S16        27.0803  -43.5362  -56.0336 S.3       11 UNK        -0.2669 
     17 C17        25.8915  -42.6072  -57.0675 C.3       11 UNK        -0.0850 
     18 CA         25.5128  -43.3016  -58.4025 C.3       10 UNK         0.0855 
     19 C          26.7137  -43.4276  -59.3860 C.2       10 UNK         0.5543 
     20 N          27.0898  -44.6216  -59.8271 N.am      10 UNK        -0.7343 
     21 O          27.2998  -42.4182  -59.7695 O.2       10 UNK        -0.5027 
     22 N          24.7588  -44.5441  -58.1729 N.am      10 UNK        -0.4495 
     23 C          23.8554  -45.0580  -59.0152 C.2       10 UNK         0.4903 
     24 O          23.5601  -44.5467  -60.0968 O.2       10 UNK        -0.4860 
     25 CA         23.1730  -46.3668  -58.5710 C.3       9 UNK         0.0227 
     26 CB         21.9266  -46.6963  -59.4145 C.3       9 UNK        -0.1964 
     27 N          24.0905  -47.5076  -58.6159 N.am      9 UNK        -0.4231 
     28 C          25.0643  -47.7492  -57.7302 C.2       9 UNK         0.5014 
     29 O          25.3108  -47.0104  -56.7737 O.2       9 UNK        -0.5270 
     30 CA         25.9126  -49.0090  -57.9873 C.3       8 UNK         0.0284 
     31 CB         26.9484  -48.7455  -59.0938 C.3       8 UNK        -0.1977 
     32 N          26.6175  -49.4543  -56.7860 N.am      8 UNK        -0.4342 
     33 C          26.0423  -49.9320  -55.6743 C.2       8 UNK         0.5039 
     34 O          24.8422  -50.1948  -55.5773 O.2       8 UNK        -0.5547 
     35 CA         26.9621  -50.1425  -54.4604 C.3       7 UNK         0.0281 
     36 CB         27.5696  -51.5553  -54.4695 C.3       7 UNK        -0.1963 
     37 N          28.0320  -49.1417  -54.4155 N.am      7 UNK        -0.4444 
     38 C          27.8823  -47.8948  -53.9444 C.2       7 UNK         0.5104 
     39 O          26.8515  -47.4877  -53.4076 O.2       7 UNK        -0.5100 
     40 CA         29.0896  -46.9468  -54.0581 C.3       6 UNK         0.0396 
     41 CB         29.8426  -46.8942  -52.7229 C.3       6 UNK        -0.1801 
     42 N          30.0254  -47.3327  -55.1159 N.am      6 UNK        -0.4747 
     43 C          29.8426  -47.0684  -56.4190 C.2       6 UNK         0.5012 
     44 O          28.8782  -46.4524  -56.8669 O.2       6 UNK        -0.5003 
     45 CA         30.8822  -47.6426  -57.4062 C.3       5 UNK         0.0782 
     46 C46        32.0093  -46.6289  -57.7247 C.3       11 UNK        -0.0868 
     47 S47        33.1682  -46.3349  -56.3404 S.3       11 UNK        -0.2515 
     48 C48        33.1776  -44.5180  -56.2203 C.3       11 UNK         0.0199 
     49 N          31.4125  -48.9470  -56.9933 N.am      5 UNK        -0.4607 
     50 C          30.6735  -50.0424  -56.7757 C.2       4 UNK         0.5031 
     51 O          29.4583  -50.0793  -56.9645 O.2       4 UNK        -0.5119 
     52 CA         31.3747  -51.2973  -56.2227 C.3       4 UNK         0.0263 
     53 CB         31.4370  -52.3904  -57.3016 C.3       4 UNK        -0.1967 
     54 N          32.7215  -51.0809  -55.6804 N.am      4 UNK        -0.4237 
     55 C          33.0336  -50.2999  -54.6366 C.2       3 UNK         0.4908 
     56 O          32.2163  -49.5944  -54.0386 O.2       3 UNK        -0.5102 
     57 CA         34.5211  -50.2891  -54.2445 C.3       3 UNK         0.0241 
     58 CB         35.3518  -49.5077  -55.2768 C.3       3 UNK        -0.1971 
     59 N          34.7296  -49.6987  -52.9226 N.am      3 UNK        -0.4139 
     60 C          34.5458  -50.3458  -51.7612 C.2       2 UNK         0.5016 
     61 O          34.2523  -51.5403  -51.6856 O.2       2 UNK        -0.5319 
     62 CA         34.7320  -49.5422  -50.4573 C.3       2 UNK         0.0286 
     63 CB         36.1164  -49.8166  -49.8476 C.3       2 UNK        -0.1963 
     64 N          34.5751  -48.1000  -50.6543 N.am      2 UNK        -0.4790 
     65 C          33.4033  -47.4918  -50.8844 C.2       1 UNK         0.5024 
     66 O          32.3192  -48.0563  -50.7398 O.2       1 UNK        -0.4888 
     67 H67        37.0073  -44.2890  -51.9971 H         1 UNK         0.0892 
     68 H68        37.7773  -45.7689  -52.5757 H         1 UNK         0.0892 
     69 H69        36.9979  -44.6729  -53.7197 H         1 UNK         0.0892 
     70 H70        35.0280  -44.6949  -51.0243 H         1 UNK         0.3107 
     71 H71        32.9414  -46.0608  -52.3499 H         1 UNK         0.0773 
     72 H72        31.5620  -45.4835  -50.3779 H         1 UNK         0.0680 
     73 H73        32.9851  -45.1325  -49.4410 H         1 UNK         0.0680 
     74 H74        30.5262  -42.2355  -51.5675 H         1 UNK         0.0650 
     75 H75        30.2225  -43.9412  -51.4004 H         1 UNK         0.0650 
     76 H76        32.9149  -44.1945  -53.5558 H         1 UNK         0.1397 
     77 H77        30.8006  -43.6022  -57.2223 H         1 UNK         0.1363 
     78 H78        28.9598  -42.5168  -53.5129 H         1 UNK         0.1355 
     79 H79        28.7805  -42.3469  -57.2555 H         1 UNK         0.0707 
     80 H80        28.3064  -41.4718  -55.8195 H         1 UNK         0.0707 
     81 H81        24.9894  -42.4487  -56.4747 H         1 UNK         0.1034 
     82 H82        26.2768  -41.6054  -57.2664 H         1 UNK         0.1034 
     83 H83        24.8263  -42.6151  -58.9021 H         1 UNK         0.0482 
     84 H84        27.8635  -44.6927  -60.4681 H         1 UNK         0.3460 
     85 H85        26.6242  -45.4492  -59.4945 H         1 UNK         0.3460 
     86 H86        25.0187  -45.0887  -57.3555 H         1 UNK         0.2989 
     87 H87        22.8419  -46.2275  -57.5395 H         1 UNK         0.0559 
     88 H88        22.1789  -46.8786  -60.4599 H         1 UNK         0.0848 
     89 H89        21.2115  -45.8729  -59.3914 H         1 UNK         0.0848 
     90 H90        21.4117  -47.5790  -59.0347 H         1 UNK         0.0848 
     91 H91        23.9768  -48.1423  -59.3936 H         1 UNK         0.3144 
     92 H92        25.2491  -49.8158  -58.3056 H         1 UNK         0.0727 
     93 H93        27.5556  -49.6303  -59.2876 H         1 UNK         0.0790 
     94 H94        27.6229  -47.9313  -58.8259 H         1 UNK         0.0790 
     95 H95        26.4655  -48.4736  -60.0331 H         1 UNK         0.0790 
     96 H96        27.6254  -49.3382  -56.7853 H         1 UNK         0.3215 
     97 H97        26.3524  -50.0448  -53.5593 H         1 UNK         0.0863 
     98 H98        28.2232  -51.7133  -53.6116 H         1 UNK         0.0808 
     99 H99        28.1472  -51.7474  -55.3736 H         1 UNK         0.0808 
    100 H100       26.7852  -52.3118  -54.4225 H         1 UNK         0.0808 
    101 H101       28.9009  -49.3778  -54.8740 H         1 UNK         0.3118 
    102 H102       28.7103  -45.9453  -54.2741 H         1 UNK         0.0546 
    103 H103       29.1850  -46.5802  -51.9115 H         1 UNK         0.0828 
    104 H104       30.6640  -46.1827  -52.7665 H         1 UNK         0.0828 
    105 H105       30.2538  -47.8684  -52.4554 H         1 UNK         0.0828 
    106 H106       30.8480  -47.8551  -54.8373 H         1 UNK         0.3005 
    107 H107       30.3371  -47.8183  -58.3367 H         1 UNK         0.1257 
    108 H108       31.5813  -45.6852  -58.0651 H         1 UNK         0.0775 
    109 H109       32.5962  -46.9969  -58.5676 H         1 UNK         0.0775 
    110 H110       34.0935  -44.2131  -55.7117 H         1 UNK         0.0840 
    111 H111       33.2321  -44.0802  -57.2183 H         1 UNK         0.0840 
    112 H112       32.3998  -48.9790  -56.7874 H         1 UNK         0.2987 
    113 H113       30.7542  -51.6651  -55.4030 H         1 UNK         0.0785 
    114 H114       30.4440  -52.6038  -57.7007 H         1 UNK         0.0798 
    115 H115       31.8273  -53.3255  -56.8994 H         1 UNK         0.0798 
    116 H116       32.0678  -52.0938  -58.1405 H         1 UNK         0.0798 
    117 H117       33.4638  -51.6047  -56.1222 H         1 UNK         0.3079 
    118 H118       34.8773  -51.3215  -54.2254 H         1 UNK         0.0794 
    119 H119       35.0111  -48.4766  -55.3699 H         1 UNK         0.0786 
    120 H120       35.2901  -49.9615  -56.2664 H         1 UNK         0.0786 
    121 H121       36.4059  -49.4834  -54.9996 H         1 UNK         0.0786 
    122 H122       34.9294  -48.7021  -52.9091 H         1 UNK         0.3032 
    123 H123       33.9704  -49.8833  -49.7522 H         1 UNK         0.1094 
    124 H124       36.9212  -49.4937  -50.5093 H         1 UNK         0.0794 
    125 H125       36.2387  -49.3045  -48.8930 H         1 UNK         0.0794 
    126 H126       36.2556  -50.8826  -49.6616 H         1 UNK         0.0794 
    127 H127       35.4189  -47.5626  -50.7917 H         1 UNK         0.3016 
@<TRIPOS>BOND
     1    1    2 1    
     2    1   67 1    
     3    1   68 1    
     4    1   69 1    
     5    2    3 2    
     6    2    4 am   BACKBONE|DICT|INTERRES
     7    4    5 1    
     8    4   70 1    
     9    5    6 1    
    10    5   65 1    
    11    5   71 1    
    12    6    7 1    
    13    6   72 1    
    14    6   73 1    
    15    7    8 1    
    16    8    9 1    
    17    8   74 1    
    18    8   75 1    
    19    9   10 ar   
    20    9   14 ar   
    21   10   11 ar   
    22   10   76 1    
    23   11   12 ar   
    24   11   48 1    
    25   12   13 ar   
    26   12   77 1    
    27   13   14 ar   
    28   13   15 1    
    29   14   78 1    
    30   15   16 1    
    31   15   79 1    
    32   15   80 1    
    33   16   17 1    
    34   17   18 1    
    35   17   81 1    
    36   17   82 1    
    37   18   19 1    
    38   18   22 1    
    39   18   83 1    
    40   19   20 am   BACKBONE|DICT|INTERRES
    41   19   21 2    
    42   20   84 1    
    43   20   85 1    
    44   22   23 am   BACKBONE|DICT|INTERRES
    45   22   86 1    
    46   23   24 2    
    47   23   25 1    
    48   25   26 1    
    49   25   27 1    
    50   25   87 1    
    51   26   88 1    
    52   26   89 1    
    53   26   90 1    
    54   27   28 am   BACKBONE|DICT|INTERRES
    55   27   91 1    
    56   28   29 2    
    57   28   30 1    
    58   30   31 1    
    59   30   32 1    
    60   30   92 1    
    61   31   93 1    
    62   31   94 1    
    63   31   95 1    
    64   32   33 am   BACKBONE|DICT|INTERRES
    65   32   96 1    
    66   33   34 2    
    67   33   35 1    
    68   35   36 1    
    69   35   37 1    
    70   35   97 1    
    71   36   98 1    
    72   36   99 1    
    73   36  100 1    
    74   37   38 am   BACKBONE|DICT|INTERRES
    75   37  101 1    
    76   38   39 2    
    77   38   40 1    
    78   40   41 1    
    79   40   42 1    
    80   40  102 1    
    81   41  103 1    
    82   41  104 1    
    83   41  105 1    
    84   42   43 am   BACKBONE|DICT|INTERRES
    85   42  106 1    
    86   43   44 2    
    87   43   45 1    
    88   45   46 1    
    89   45   49 1    
    90   45  107 1    
    91   46   47 1    
    92   46  108 1    
    93   46  109 1    
    94   47   48 1    
    95   48  110 1    
    96   48  111 1    
    97   49   50 am   BACKBONE|DICT|INTERRES
    98   49  112 1    
    99   50   51 2    
   100   50   52 1    
   101   52   53 1    
   102   52   54 1    
   103   52  113 1    
   104   53  114 1    
   105   53  115 1    
   106   53  116 1    
   107   54   55 am   BACKBONE|DICT|INTERRES
   108   54  117 1    
   109   55   56 2    
   110   55   57 1    
   111   57   58 1    
   112   57   59 1    
   113   57  118 1    
   114   58  119 1    
   115   58  120 1    
   116   58  121 1    
   117   59   60 am   BACKBONE|DICT|INTERRES
   118   59  122 1    
   119   60   61 2    
   120   60   62 1    
   121   62   63 1    
   122   62   64 1    
   123   62  123 1    
   124   63  124 1    
   125   63  125 1    
   126   63  126 1    
   127   64   65 am   BACKBONE|DICT|INTERRES
   128   64  127 1    
   129   65   66 2    
@<TRIPOS>SUBSTRUCTURE
     1 UNK         1 GROUP             0       ****    0 ROOT    
