@<TRIPOS>MOLECULE
3R134
127   129    1
SMALL
USER_CHARGES


@<TRIPOS>ATOM
      1 CA         37.5943  -44.5081  -51.1993 C.3       0 UNK        -0.1968 
      2 C          36.2739  -44.9201  -51.8327 C.2       0 UNK         0.4852 
      3 O          36.2714  -45.5043  -52.9175 O.2       0 UNK        -0.5359 
      4 N          35.1514  -44.6295  -51.1620 N.am      1 UNK        -0.4300 
      5 CA         33.7840  -44.9318  -51.6056 C.3       1 UNK         0.0863 
      6 C6         32.7502  -43.9354  -51.0121 C.3       11 UNK        -0.0953 
      7 S7         33.2048  -42.1860  -51.2995 S.3       11 UNK        -0.2369 
      8 C8         31.7436  -41.5136  -52.1671 C.3       11 UNK         0.0226 
      9 C9         31.5679  -41.9177  -53.6336 C.ar      11 UNK        -0.0699 
     10 C10        32.5137  -42.6715  -54.3428 C.ar      11 UNK        -0.0804 
     11 C11        32.2733  -43.0577  -55.6644 C.ar      11 UNK        -0.0871 
     12 C12        31.1165  -42.6173  -56.3098 C.ar      11 UNK        -0.1008 
     13 C13        30.1687  -41.8540  -55.6254 C.ar      11 UNK        -0.0735 
     14 C14        30.3985  -41.5149  -54.2887 C.ar      11 UNK        -0.0945 
     15 C15        28.8921  -41.4087  -56.3254 C.3       11 UNK         0.0169 
     16 S16        27.6244  -42.7180  -56.3161 S.3       11 UNK        -0.2669 
     17 C17        28.2717  -43.8635  -57.5845 C.3       11 UNK        -0.0850 
     18 CA         27.1674  -44.6816  -58.3063 C.3       10 UNK         0.0855 
     19 C          27.7509  -45.4532  -59.5242 C.2       10 UNK         0.5543 
     20 N          27.6280  -46.7707  -59.6273 N.am      10 UNK        -0.7343 
     21 O          28.3182  -44.8319  -60.4198 O.2       10 UNK        -0.5027 
     22 N          26.4256  -45.5418  -57.3712 N.am      10 UNK        -0.4495 
     23 C          25.1460  -45.3685  -57.0217 C.2       10 UNK         0.4903 
     24 O          24.4333  -44.4526  -57.4391 O.2       10 UNK        -0.4860 
     25 CA         24.5629  -46.4125  -56.0505 C.3       9 UNK         0.0227 
     26 CB         23.1993  -45.9917  -55.4630 C.3       9 UNK        -0.1964 
     27 N          24.4703  -47.7460  -56.6554 N.am      9 UNK        -0.4231 
     28 C          23.8486  -48.0948  -57.7958 C.2       9 UNK         0.5014 
     29 O          23.1904  -47.3133  -58.4843 O.2       9 UNK        -0.5270 
     30 CA         23.9434  -49.5722  -58.2424 C.3       8 UNK         0.0284 
     31 CB         24.0631  -49.7102  -59.7760 C.3       8 UNK        -0.1977 
     32 N          24.9906  -50.3520  -57.5674 N.am      8 UNK        -0.4342 
     33 C          26.3124  -50.1338  -57.6019 C.2       8 UNK         0.5039 
     34 O          26.8517  -49.2346  -58.2491 O.2       8 UNK        -0.5547 
     35 CA         27.1675  -51.0378  -56.6973 C.3       7 UNK         0.0281 
     36 CB         28.2342  -51.7799  -57.5196 C.3       7 UNK        -0.1963 
     37 N          27.8227  -50.2725  -55.6340 N.am      7 UNK        -0.4444 
     38 C          27.2184  -49.4458  -54.7676 C.2       7 UNK         0.5104 
     39 O          25.9971  -49.2994  -54.6937 O.2       7 UNK        -0.5100 
     40 CA         28.1255  -48.6203  -53.8385 C.3       6 UNK         0.0396 
     41 CB         28.3591  -49.3660  -52.5170 C.3       6 UNK        -0.1801 
     42 N          29.4147  -48.2625  -54.4393 N.am      6 UNK        -0.4747 
     43 C          29.5643  -47.4771  -55.5186 C.2       6 UNK         0.5012 
     44 O          28.6235  -46.9770  -56.1350 O.2       6 UNK        -0.5003 
     45 CA         31.0089  -47.2020  -55.9754 C.3       5 UNK         0.0782 
     46 C46        31.6221  -46.0718  -55.1141 C.3       11 UNK        -0.0868 
     47 S47        33.3459  -45.6440  -55.5598 S.3       11 UNK        -0.2515 
     48 C48        33.2204  -44.0124  -56.3800 C.3       11 UNK         0.0199 
     49 N          31.7885  -48.4402  -55.9222 N.am      5 UNK        -0.4607 
     50 C          31.8114  -49.3607  -56.8950 C.2       4 UNK         0.5031 
     51 O          31.2639  -49.2130  -57.9870 O.2       4 UNK        -0.5119 
     52 CA         32.5639  -50.6753  -56.6115 C.3       4 UNK         0.0263 
     53 CB         34.0035  -50.5924  -57.1440 C.3       4 UNK        -0.1967 
     54 N          32.5963  -51.0429  -55.1933 N.am      4 UNK        -0.4237 
     55 C          31.5216  -51.3660  -54.4593 C.2       3 UNK         0.4908 
     56 O          30.3828  -51.4520  -54.9155 O.2       3 UNK        -0.5102 
     57 CA         31.7434  -51.5767  -52.9494 C.3       3 UNK         0.0241 
     58 CB         32.0366  -53.0561  -52.6542 C.3       3 UNK        -0.1971 
     59 N          32.8030  -50.7424  -52.3680 N.am      3 UNK        -0.4139 
     60 C          32.8804  -49.4055  -52.4496 C.2       2 UNK         0.5016 
     61 O          32.0465  -48.7137  -53.0394 O.2       2 UNK        -0.5319 
     62 CA         34.1274  -48.7644  -51.8125 C.3       2 UNK         0.0286 
     63 CB         35.4212  -49.3417  -52.4187 C.3       2 UNK        -0.1963 
     64 N          34.1737  -47.3111  -51.9739 N.am      2 UNK        -0.4790 
     65 C          33.4481  -46.4092  -51.3029 C.2       1 UNK         0.5024 
     66 O          32.6121  -46.7017  -50.4458 O.2       1 UNK        -0.4888 
     67 H67        37.4488  -43.9979  -50.2473 H         1 UNK         0.0892 
     68 H68        38.2153  -45.3860  -51.0229 H         1 UNK         0.0892 
     69 H69        38.1349  -43.8358  -51.8650 H         1 UNK         0.0892 
     70 H70        35.2174  -44.1616  -50.2694 H         1 UNK         0.3107 
     71 H71        33.7459  -44.8322  -52.6903 H         1 UNK         0.0773 
     72 H72        31.7621  -44.1270  -51.4348 H         1 UNK         0.0680 
     73 H73        32.6540  -44.0753  -49.9338 H         1 UNK         0.0680 
     74 H74        31.8058  -40.4255  -52.1227 H         1 UNK         0.0650 
     75 H75        30.8501  -41.7917  -51.6060 H         1 UNK         0.0650 
     76 H76        33.4283  -42.9950  -53.8715 H         1 UNK         0.1397 
     77 H77        30.9378  -42.8985  -57.3377 H         1 UNK         0.1363 
     78 H78        29.6598  -40.9339  -53.7531 H         1 UNK         0.1355 
     79 H79        29.1080  -41.1027  -57.3502 H         1 UNK         0.0707 
     80 H80        28.4836  -40.5271  -55.8289 H         1 UNK         0.0707 
     81 H81        28.8288  -43.2760  -58.3161 H         1 UNK         0.1034 
     82 H82        28.9947  -44.5310  -57.1136 H         1 UNK         0.1034 
     83 H83        26.4795  -43.9626  -58.7544 H         1 UNK         0.0482 
     84 H84        27.1981  -47.3420  -58.9079 H         1 UNK         0.3460 
     85 H85        28.0163  -47.2269  -60.4363 H         1 UNK         0.3460 
     86 H86        26.9692  -46.2978  -56.9640 H         1 UNK         0.2989 
     87 H87        25.2666  -46.4972  -55.2207 H         1 UNK         0.0559 
     88 H88        23.2737  -45.0266  -54.9602 H         1 UNK         0.0848 
     89 H89        22.4347  -45.8975  -56.2349 H         1 UNK         0.0848 
     90 H90        22.8453  -46.7139  -54.7275 H         1 UNK         0.0848 
     91 H91        24.9811  -48.4694  -56.1561 H         1 UNK         0.3144 
     92 H92        22.9973  -50.0282  -57.9472 H         1 UNK         0.0727 
     93 H93        24.1142  -50.7561  -60.0785 H         1 UNK         0.0790 
     94 H94        24.9509  -49.2058  -60.1591 H         1 UNK         0.0790 
     95 H95        23.2002  -49.2721  -60.2791 H         1 UNK         0.0790 
     96 H96        24.6516  -51.0923  -56.9673 H         1 UNK         0.3215 
     97 H97        26.5259  -51.7809  -56.2199 H         1 UNK         0.0863 
     98 H98        27.7785  -52.3443  -58.3341 H         1 UNK         0.0808 
     99 H99        28.9523  -51.0878  -57.9624 H         1 UNK         0.0808 
    100 H100       28.7887  -52.4888  -56.9045 H         1 UNK         0.0808 
    101 H101       28.8295  -50.3798  -55.5593 H         1 UNK         0.3118 
    102 H102       27.6050  -47.6872  -53.6134 H         1 UNK         0.0546 
    103 H103       27.4199  -49.5004  -51.9789 H         1 UNK         0.0828 
    104 H104       29.0360  -48.8198  -51.8596 H         1 UNK         0.0828 
    105 H105       28.7757  -50.3578  -52.6869 H         1 UNK         0.0828 
    106 H106       30.2519  -48.5950  -53.9698 H         1 UNK         0.3005 
    107 H107       30.9642  -46.8520  -57.0095 H         1 UNK         0.1257 
    108 H108       31.6296  -46.3538  -54.0603 H         1 UNK         0.0775 
    109 H109       30.9818  -45.1923  -55.1646 H         1 UNK         0.0775 
    110 H110       34.2134  -43.5639  -56.4305 H         1 UNK         0.0840 
    111 H111       32.9040  -44.1701  -57.4122 H         1 UNK         0.0840 
    112 H112       32.2247  -48.6421  -55.0295 H         1 UNK         0.2987 
    113 H113       32.0432  -51.4707  -57.1493 H         1 UNK         0.0785 
    114 H114       34.0120  -50.3487  -58.2074 H         1 UNK         0.0798 
    115 H115       34.5265  -51.5418  -57.0274 H         1 UNK         0.0798 
    116 H116       34.5808  -49.8230  -56.6294 H         1 UNK         0.0798 
    117 H117       33.4931  -51.0003  -54.7326 H         1 UNK         0.3079 
    118 H118       30.8161  -51.3106  -52.4421 H         1 UNK         0.0794 
    119 H119       31.2503  -53.6972  -53.0558 H         1 UNK         0.0786 
    120 H120       32.0879  -53.2455  -51.5817 H         1 UNK         0.0786 
    121 H121       32.9789  -53.3790  -53.0989 H         1 UNK         0.0786 
    122 H122       33.5277  -51.2343  -51.8651 H         1 UNK         0.3032 
    123 H123       34.1040  -48.9889  -50.7437 H         1 UNK         0.1094 
    124 H124       36.3039  -48.8727  -51.9827 H         1 UNK         0.0794 
    125 H125       35.5140  -50.4128  -52.2366 H         1 UNK         0.0794 
    126 H126       35.4638  -49.1864  -53.4978 H         1 UNK         0.0794 
    127 H127       34.8567  -46.9474  -52.6313 H         1 UNK         0.3016 
@<TRIPOS>BOND
     1    1    2 1    
     2    1   67 1    
     3    1   68 1    
     4    1   69 1    
     5    2    3 2    
     6    2    4 am   BACKBONE|DICT|INTERRES
     7    4    5 1    
     8    4   70 1    
     9    5    6 1    
    10    5   65 1    
    11    5   71 1    
    12    6    7 1    
    13    6   72 1    
    14    6   73 1    
    15    7    8 1    
    16    8    9 1    
    17    8   74 1    
    18    8   75 1    
    19    9   10 ar   
    20    9   14 ar   
    21   10   11 ar   
    22   10   76 1    
    23   11   12 ar   
    24   11   48 1    
    25   12   13 ar   
    26   12   77 1    
    27   13   14 ar   
    28   13   15 1    
    29   14   78 1    
    30   15   16 1    
    31   15   79 1    
    32   15   80 1    
    33   16   17 1    
    34   17   18 1    
    35   17   81 1    
    36   17   82 1    
    37   18   19 1    
    38   18   22 1    
    39   18   83 1    
    40   19   20 am   BACKBONE|DICT|INTERRES
    41   19   21 2    
    42   20   84 1    
    43   20   85 1    
    44   22   23 am   BACKBONE|DICT|INTERRES
    45   22   86 1    
    46   23   24 2    
    47   23   25 1    
    48   25   26 1    
    49   25   27 1    
    50   25   87 1    
    51   26   88 1    
    52   26   89 1    
    53   26   90 1    
    54   27   28 am   BACKBONE|DICT|INTERRES
    55   27   91 1    
    56   28   29 2    
    57   28   30 1    
    58   30   31 1    
    59   30   32 1    
    60   30   92 1    
    61   31   93 1    
    62   31   94 1    
    63   31   95 1    
    64   32   33 am   BACKBONE|DICT|INTERRES
    65   32   96 1    
    66   33   34 2    
    67   33   35 1    
    68   35   36 1    
    69   35   37 1    
    70   35   97 1    
    71   36   98 1    
    72   36   99 1    
    73   36  100 1    
    74   37   38 am   BACKBONE|DICT|INTERRES
    75   37  101 1    
    76   38   39 2    
    77   38   40 1    
    78   40   41 1    
    79   40   42 1    
    80   40  102 1    
    81   41  103 1    
    82   41  104 1    
    83   41  105 1    
    84   42   43 am   BACKBONE|DICT|INTERRES
    85   42  106 1    
    86   43   44 2    
    87   43   45 1    
    88   45   46 1    
    89   45   49 1    
    90   45  107 1    
    91   46   47 1    
    92   46  108 1    
    93   46  109 1    
    94   47   48 1    
    95   48  110 1    
    96   48  111 1    
    97   49   50 am   BACKBONE|DICT|INTERRES
    98   49  112 1    
    99   50   51 2    
   100   50   52 1    
   101   52   53 1    
   102   52   54 1    
   103   52  113 1    
   104   53  114 1    
   105   53  115 1    
   106   53  116 1    
   107   54   55 am   BACKBONE|DICT|INTERRES
   108   54  117 1    
   109   55   56 2    
   110   55   57 1    
   111   57   58 1    
   112   57   59 1    
   113   57  118 1    
   114   58  119 1    
   115   58  120 1    
   116   58  121 1    
   117   59   60 am   BACKBONE|DICT|INTERRES
   118   59  122 1    
   119   60   61 2    
   120   60   62 1    
   121   62   63 1    
   122   62   64 1    
   123   62  123 1    
   124   63  124 1    
   125   63  125 1    
   126   63  126 1    
   127   64   65 am   BACKBONE|DICT|INTERRES
   128   64  127 1    
   129   65   66 2    
@<TRIPOS>SUBSTRUCTURE
     1 UNK         1 GROUP             0       ****    0 ROOT    
