@<TRIPOS>MOLECULE
3R134
127   129    1
SMALL
USER_CHARGES


@<TRIPOS>ATOM
      1 CA         39.1844  -46.8884  -51.6475 C.3       0 UNK        -0.1968 
      2 C          37.6812  -46.6811  -51.7627 C.2       0 UNK         0.4852 
      3 O          36.9695  -46.8362  -50.7695 O.2       0 UNK        -0.5359 
      4 N          37.2018  -46.3324  -52.9664 N.am      1 UNK        -0.4300 
      5 CA         35.7917  -46.0975  -53.3086 C.3       1 UNK         0.0863 
      6 C6         35.1914  -44.8606  -52.5770 C.3       11 UNK        -0.0953 
      7 S7         33.9797  -43.9586  -53.6005 S.3       11 UNK        -0.2369 
      8 C8         32.4394  -44.2021  -52.6486 C.3       11 UNK         0.0226 
      9 C9         31.1873  -43.5349  -53.2282 C.ar      11 UNK        -0.0699 
     10 C10        30.0450  -43.4557  -52.4211 C.ar      11 UNK        -0.0804 
     11 C11        28.8750  -42.8508  -52.8913 C.ar      11 UNK        -0.0871 
     12 C12        28.8572  -42.3015  -54.1734 C.ar      11 UNK        -0.1008 
     13 C13        29.9696  -42.4041  -55.0073 C.ar      11 UNK        -0.0735 
     14 C14        31.1298  -43.0239  -54.5347 C.ar      11 UNK        -0.0945 
     15 C15        29.9012  -41.8315  -56.4143 C.3       11 UNK         0.0169 
     16 S16        28.7719  -42.7943  -57.4692 S.3       11 UNK        -0.2669 
     17 C17        29.8256  -44.2190  -57.8914 C.3       11 UNK        -0.0850 
     18 CA         29.1958  -45.0770  -59.0217 C.3       10 UNK         0.0855 
     19 C          30.2390  -45.9543  -59.7770 C.2       10 UNK         0.5543 
     20 N          29.9411  -47.1997  -60.1304 N.am      10 UNK        -0.7343 
     21 O          31.3291  -45.4840  -60.0935 O.2       10 UNK        -0.5027 
     22 N          28.0420  -45.8461  -58.5263 N.am      10 UNK        -0.4495 
     23 C          26.8442  -45.9047  -59.1206 C.2       10 UNK         0.4903 
     24 O          26.5309  -45.2330  -60.1050 O.2       10 UNK        -0.4860 
     25 CA         25.8309  -46.9007  -58.5160 C.3       9 UNK         0.0227 
     26 CB         24.6620  -47.2192  -59.4730 C.3       9 UNK        -0.1964 
     27 N          26.4473  -48.1450  -58.0243 N.am      9 UNK        -0.4231 
     28 C          27.1946  -48.9971  -58.7458 C.2       9 UNK         0.5014 
     29 O          27.4591  -48.8182  -59.9357 O.2       9 UNK        -0.5270 
     30 CA         27.7773  -50.2381  -58.0508 C.3       8 UNK         0.0284 
     31 CB         29.2563  -50.4502  -58.4333 C.3       8 UNK        -0.1977 
     32 N          27.6698  -50.1983  -56.5903 N.am      8 UNK        -0.4342 
     33 C          27.4547  -51.2808  -55.8303 C.2       8 UNK         0.5039 
     34 O          27.1609  -52.3895  -56.2803 O.2       8 UNK        -0.5547 
     35 CA         27.6360  -51.1215  -54.3152 C.3       7 UNK         0.0281 
     36 CB         29.1295  -51.0674  -53.9561 C.3       7 UNK        -0.1963 
     37 N          26.9613  -49.9365  -53.7887 N.am      7 UNK        -0.4444 
     38 C          25.6841  -49.9149  -53.3863 C.2       7 UNK         0.5104 
     39 O          24.9207  -50.8774  -53.4707 O.2       7 UNK        -0.5100 
     40 CA         25.1747  -48.6100  -52.7483 C.3       6 UNK         0.0396 
     41 CB         25.2310  -48.7088  -51.2155 C.3       6 UNK        -0.1801 
     42 N          25.9151  -47.4207  -53.1755 N.am      6 UNK        -0.4747 
     43 C          25.7957  -46.8525  -54.3821 C.2       6 UNK         0.5012 
     44 O          25.0751  -47.2958  -55.2755 O.2       6 UNK        -0.5003 
     45 CA         26.6643  -45.6038  -54.6431 C.3       5 UNK         0.0782 
     46 C46        26.1168  -44.3721  -53.8676 C.3       11 UNK        -0.0868 
     47 S47        26.6308  -44.3023  -52.1061 S.3       11 UNK        -0.2515 
     48 C48        27.6279  -42.7770  -52.0212 C.3       11 UNK         0.0199 
     49 N          28.0902  -45.8373  -54.3806 N.am      5 UNK        -0.4607 
     50 C          28.8362  -46.8462  -54.8456 C.2       4 UNK         0.5031 
     51 O          28.4312  -47.6878  -55.6514 O.2       4 UNK        -0.5119 
     52 CA         30.2398  -46.9672  -54.2338 C.3       4 UNK         0.0263 
     53 CB         30.1418  -47.3449  -52.7443 C.3       4 UNK        -0.1967 
     54 N          31.0693  -47.9633  -54.9087 N.am      4 UNK        -0.4237 
     55 C          31.6410  -47.8124  -56.1076 C.2       3 UNK         0.4908 
     56 O          31.5586  -46.7866  -56.7806 O.2       3 UNK        -0.5102 
     57 CA         32.4933  -48.9958  -56.6011 C.3       3 UNK         0.0241 
     58 CB         33.0153  -48.7955  -58.0363 C.3       3 UNK        -0.1971 
     59 N          33.6290  -49.2088  -55.7026 N.am      3 UNK        -0.4139 
     60 C          33.5769  -49.8778  -54.5428 C.2       2 UNK         0.5016 
     61 O          32.5736  -50.4679  -54.1404 O.2       2 UNK        -0.5319 
     62 CA         34.8353  -49.8242  -53.6600 C.3       2 UNK         0.0286 
     63 CB         35.8430  -50.9066  -54.0789 C.3       2 UNK        -0.1963 
     64 N          35.4877  -48.5091  -53.6770 N.am      2 UNK        -0.4790 
     65 C          34.9450  -47.3864  -53.1769 C.2       1 UNK         0.5024 
     66 O          33.8441  -47.3602  -52.6266 O.2       1 UNK        -0.4888 
     67 H67        39.6012  -46.2057  -50.9074 H         1 UNK         0.0892 
     68 H68        39.6957  -46.7144  -52.5942 H         1 UNK         0.0892 
     69 H69        39.3988  -47.9084  -51.3293 H         1 UNK         0.0892 
     70 H70        37.8518  -46.2193  -53.7326 H         1 UNK         0.3107 
     71 H71        35.8075  -45.8739  -54.3766 H         1 UNK         0.0773 
     72 H72        35.9830  -44.1442  -52.3522 H         1 UNK         0.0680 
     73 H73        34.7645  -45.1284  -51.6087 H         1 UNK         0.0680 
     74 H74        32.2520  -45.2705  -52.5531 H         1 UNK         0.0650 
     75 H75        32.6045  -43.8241  -51.6385 H         1 UNK         0.0650 
     76 H76        30.0660  -43.8667  -51.4205 H         1 UNK         0.1397 
     77 H77        27.9669  -41.8097  -54.5407 H         1 UNK         0.1363 
     78 H78        31.9830  -43.0970  -55.1931 H         1 UNK         0.1355 
     79 H79        30.8907  -41.7834  -56.8715 H         1 UNK         0.0707 
     80 H80        29.5401  -40.8034  -56.3617 H         1 UNK         0.0707 
     81 H81        30.8034  -43.8342  -58.1863 H         1 UNK         0.1034 
     82 H82        29.9901  -44.8129  -56.9926 H         1 UNK         0.1034 
     83 H83        28.8549  -44.3796  -59.7888 H         1 UNK         0.0482 
     84 H84        30.6256  -47.7345  -60.6391 H         1 UNK         0.3460 
     85 H85        29.0219  -47.5928  -59.9627 H         1 UNK         0.3460 
     86 H86        28.2263  -46.4615  -57.7453 H         1 UNK         0.2989 
     87 H87        25.4058  -46.3950  -57.6506 H         1 UNK         0.0559 
     88 H88        25.0102  -47.6773  -60.3994 H         1 UNK         0.0848 
     89 H89        24.1176  -46.3136  -59.7432 H         1 UNK         0.0848 
     90 H90        23.9458  -47.8984  -59.0109 H         1 UNK         0.0848 
     91 H91        26.2794  -48.3538  -57.0483 H         1 UNK         0.3144 
     92 H92        27.2002  -51.0809  -58.4367 H         1 UNK         0.0727 
     93 H93        29.6676  -51.3439  -57.9637 H         1 UNK         0.0790 
     94 H94        29.8675  -49.5994  -58.1318 H         1 UNK         0.0790 
     95 H95        29.3750  -50.5723  -59.5106 H         1 UNK         0.0790 
     96 H96        27.9303  -49.3159  -56.1476 H         1 UNK         0.3215 
     97 H97        27.2173  -52.0098  -53.8361 H         1 UNK         0.0863 
     98 H98        29.2802  -50.9953  -52.8789 H         1 UNK         0.0808 
     99 H99        29.6271  -50.2199  -54.4240 H         1 UNK         0.0808 
    100 H100       29.6445  -51.9678  -54.2941 H         1 UNK         0.0808 
    101 H101       27.4965  -49.0845  -53.7213 H         1 UNK         0.3118 
    102 H102       24.1296  -48.4873  -53.0412 H         1 UNK         0.0546 
    103 H103       24.6613  -49.5681  -50.8585 H         1 UNK         0.0828 
    104 H104       24.8053  -47.8227  -50.7444 H         1 UNK         0.0828 
    105 H105       26.2538  -48.8238  -50.8542 H         1 UNK         0.0828 
    106 H106       26.5121  -46.9742  -52.4928 H         1 UNK         0.3005 
    107 H107       26.5785  -45.3864  -55.7095 H         1 UNK         0.1257 
    108 H108       25.0258  -44.3402  -53.9058 H         1 UNK         0.0775 
    109 H109       26.4283  -43.4615  -54.3748 H         1 UNK         0.0775 
    110 H110       27.0085  -41.9258  -52.3088 H         1 UNK         0.0840 
    111 H111       27.9157  -42.6021  -50.9835 H         1 UNK         0.0840 
    112 H112       28.5083  -45.1860  -53.7300 H         1 UNK         0.2987 
    113 H113       30.7331  -46.0004  -54.3324 H         1 UNK         0.0785 
    114 H114       29.6182  -46.5793  -52.1705 H         1 UNK         0.0798 
    115 H115       31.1300  -47.4544  -52.2976 H         1 UNK         0.0798 
    116 H116       29.6090  -48.2848  -52.5975 H         1 UNK         0.0798 
    117 H117       31.2431  -48.8311  -54.4152 H         1 UNK         0.3079 
    118 H118       31.8577  -49.8842  -56.5980 H         1 UNK         0.0794 
    119 H119       33.6674  -47.9245  -58.1132 H         1 UNK         0.0786 
    120 H120       32.1900  -48.6447  -58.7332 H         1 UNK         0.0786 
    121 H121       33.5741  -49.6659  -58.3804 H         1 UNK         0.0786 
    122 H122       34.4826  -48.7204  -55.9301 H         1 UNK         0.3032 
    123 H123       34.5202  -50.0291  -52.6340 H         1 UNK         0.1094 
    124 H124       36.6987  -50.9342  -53.4039 H         1 UNK         0.0794 
    125 H125       35.3832  -51.8958  -54.0559 H         1 UNK         0.0794 
    126 H126       36.2173  -50.7449  -55.0905 H         1 UNK         0.0794 
    127 H127       36.4098  -48.4595  -54.0863 H         1 UNK         0.3016 
@<TRIPOS>BOND
     1    1    2 1    
     2    1   67 1    
     3    1   68 1    
     4    1   69 1    
     5    2    3 2    
     6    2    4 am   BACKBONE|DICT|INTERRES
     7    4    5 1    
     8    4   70 1    
     9    5    6 1    
    10    5   65 1    
    11    5   71 1    
    12    6    7 1    
    13    6   72 1    
    14    6   73 1    
    15    7    8 1    
    16    8    9 1    
    17    8   74 1    
    18    8   75 1    
    19    9   10 ar   
    20    9   14 ar   
    21   10   11 ar   
    22   10   76 1    
    23   11   12 ar   
    24   11   48 1    
    25   12   13 ar   
    26   12   77 1    
    27   13   14 ar   
    28   13   15 1    
    29   14   78 1    
    30   15   16 1    
    31   15   79 1    
    32   15   80 1    
    33   16   17 1    
    34   17   18 1    
    35   17   81 1    
    36   17   82 1    
    37   18   19 1    
    38   18   22 1    
    39   18   83 1    
    40   19   20 am   BACKBONE|DICT|INTERRES
    41   19   21 2    
    42   20   84 1    
    43   20   85 1    
    44   22   23 am   BACKBONE|DICT|INTERRES
    45   22   86 1    
    46   23   24 2    
    47   23   25 1    
    48   25   26 1    
    49   25   27 1    
    50   25   87 1    
    51   26   88 1    
    52   26   89 1    
    53   26   90 1    
    54   27   28 am   BACKBONE|DICT|INTERRES
    55   27   91 1    
    56   28   29 2    
    57   28   30 1    
    58   30   31 1    
    59   30   32 1    
    60   30   92 1    
    61   31   93 1    
    62   31   94 1    
    63   31   95 1    
    64   32   33 am   BACKBONE|DICT|INTERRES
    65   32   96 1    
    66   33   34 2    
    67   33   35 1    
    68   35   36 1    
    69   35   37 1    
    70   35   97 1    
    71   36   98 1    
    72   36   99 1    
    73   36  100 1    
    74   37   38 am   BACKBONE|DICT|INTERRES
    75   37  101 1    
    76   38   39 2    
    77   38   40 1    
    78   40   41 1    
    79   40   42 1    
    80   40  102 1    
    81   41  103 1    
    82   41  104 1    
    83   41  105 1    
    84   42   43 am   BACKBONE|DICT|INTERRES
    85   42  106 1    
    86   43   44 2    
    87   43   45 1    
    88   45   46 1    
    89   45   49 1    
    90   45  107 1    
    91   46   47 1    
    92   46  108 1    
    93   46  109 1    
    94   47   48 1    
    95   48  110 1    
    96   48  111 1    
    97   49   50 am   BACKBONE|DICT|INTERRES
    98   49  112 1    
    99   50   51 2    
   100   50   52 1    
   101   52   53 1    
   102   52   54 1    
   103   52  113 1    
   104   53  114 1    
   105   53  115 1    
   106   53  116 1    
   107   54   55 am   BACKBONE|DICT|INTERRES
   108   54  117 1    
   109   55   56 2    
   110   55   57 1    
   111   57   58 1    
   112   57   59 1    
   113   57  118 1    
   114   58  119 1    
   115   58  120 1    
   116   58  121 1    
   117   59   60 am   BACKBONE|DICT|INTERRES
   118   59  122 1    
   119   60   61 2    
   120   60   62 1    
   121   62   63 1    
   122   62   64 1    
   123   62  123 1    
   124   63  124 1    
   125   63  125 1    
   126   63  126 1    
   127   64   65 am   BACKBONE|DICT|INTERRES
   128   64  127 1    
   129   65   66 2    
@<TRIPOS>SUBSTRUCTURE
     1 UNK         1 GROUP             0       ****    0 ROOT    
