@<TRIPOS>MOLECULE
3R134
127   129    1
SMALL
USER_CHARGES


@<TRIPOS>ATOM
      1 CA         35.6707  -47.0624  -50.8055 C.3       0 UNK        -0.1968 
      2 C          34.9196  -47.0562  -52.1287 C.2       0 UNK         0.4852 
      3 O          33.8381  -47.6370  -52.2129 O.2       0 UNK        -0.5359 
      4 N          35.4850  -46.4004  -53.1529 N.am      1 UNK        -0.4300 
      5 CA         34.9597  -46.3165  -54.5215 C.3       1 UNK         0.0863 
      6 C6         33.5632  -45.6311  -54.5876 C.3       11 UNK        -0.0953 
      7 S7         33.2625  -44.7747  -56.1728 S.3       11 UNK        -0.2369 
      8 C8         32.7648  -43.1144  -55.6164 C.3       11 UNK         0.0226 
      9 C9         31.4371  -43.1510  -54.8749 C.ar      11 UNK        -0.0699 
     10 C10        31.4032  -43.0646  -53.4799 C.ar      11 UNK        -0.0804 
     11 C11        30.1874  -43.1310  -52.7948 C.ar      11 UNK        -0.0871 
     12 C12        28.9971  -43.2588  -53.5168 C.ar      11 UNK        -0.1008 
     13 C13        29.0193  -43.3591  -54.9103 C.ar      11 UNK        -0.0735 
     14 C14        30.2418  -43.2946  -55.5847 C.ar      11 UNK        -0.0945 
     15 C15        27.7275  -43.5888  -55.6782 C.3       11 UNK         0.0169 
     16 S16        27.2966  -42.1661  -56.7210 S.3       11 UNK        -0.2669 
     17 C17        25.6576  -42.6947  -57.3288 C.3       11 UNK        -0.0850 
     18 CA         25.6211  -43.1365  -58.8151 C.3       10 UNK         0.0855 
     19 C          25.8540  -41.9573  -59.8035 C.2       10 UNK         0.5543 
     20 N          24.8933  -41.0500  -59.9193 N.am      10 UNK        -0.7343 
     21 O          26.8935  -41.8452  -60.4518 O.2       10 UNK        -0.5027 
     22 N          26.4957  -44.2914  -59.0810 N.am      10 UNK        -0.4495 
     23 C          26.2973  -45.1451  -60.0934 C.2       10 UNK         0.4903 
     24 O          25.2986  -45.1184  -60.8149 O.2       10 UNK        -0.4860 
     25 CA         27.3786  -46.2001  -60.3953 C.3       9 UNK         0.0227 
     26 CB         28.1961  -45.7725  -61.6264 C.3       9 UNK        -0.1964 
     27 N          28.3068  -46.5420  -59.3114 N.am      9 UNK        -0.4231 
     28 C          27.9834  -47.1244  -58.1487 C.2       9 UNK         0.5014 
     29 O          26.8307  -47.2271  -57.7235 O.2       9 UNK        -0.5270 
     30 CA         29.1723  -47.7031  -57.3531 C.3       8 UNK         0.0284 
     31 CB         29.9346  -46.6113  -56.5876 C.3       8 UNK        -0.1977 
     32 N          28.7924  -48.7510  -56.4062 N.am      8 UNK        -0.4342 
     33 C          28.2438  -49.9339  -56.7144 C.2       8 UNK         0.5039 
     34 O          28.0378  -50.3197  -57.8669 O.2       8 UNK        -0.5547 
     35 CA         27.8538  -50.8467  -55.5394 C.3       7 UNK         0.0281 
     36 CB         28.9920  -51.8231  -55.2003 C.3       7 UNK        -0.1963 
     37 N          27.5004  -50.0814  -54.3407 N.am      7 UNK        -0.4444 
     38 C          26.2643  -49.6515  -54.0515 C.2       7 UNK         0.5104 
     39 O          25.2781  -49.8852  -54.7509 O.2       7 UNK        -0.5100 
     40 CA         26.0784  -48.8490  -52.7491 C.3       6 UNK         0.0396 
     41 CB         25.5394  -49.7615  -51.6355 C.3       6 UNK        -0.1801 
     42 N          27.3072  -48.2031  -52.2810 N.am      6 UNK        -0.4747 
     43 C          27.8194  -47.0753  -52.7960 C.2       6 UNK         0.5012 
     44 O          27.2802  -46.4289  -53.6931 O.2       6 UNK        -0.5003 
     45 CA         29.1758  -46.6031  -52.2265 C.3       5 UNK         0.0782 
     46 C46        28.9453  -45.6341  -51.0399 C.3       11 UNK        -0.0868 
     47 S47        30.4672  -44.7477  -50.5639 S.3       11 UNK        -0.2515 
     48 C48        30.1665  -43.0950  -51.2740 C.3       11 UNK         0.0199 
     49 N          30.0579  -47.7186  -51.8509 N.am      5 UNK        -0.4607 
     50 C          30.4766  -48.6824  -52.6796 C.2       4 UNK         0.5031 
     51 O          30.1661  -48.7411  -53.8704 O.2       4 UNK        -0.5119 
     52 CA         31.2785  -49.8234  -52.0502 C.3       4 UNK         0.0263 
     53 CB         30.3285  -50.8292  -51.3688 C.3       4 UNK        -0.1967 
     54 N          32.0575  -50.4915  -53.0888 N.am      4 UNK        -0.4237 
     55 C          33.1018  -51.2987  -52.8785 C.2       3 UNK         0.4908 
     56 O          33.5179  -51.5983  -51.7582 O.2       3 UNK        -0.5102 
     57 CA         33.8204  -51.8766  -54.1106 C.3       3 UNK         0.0241 
     58 CB         33.0693  -53.0975  -54.6799 C.3       3 UNK        -0.1971 
     59 N          34.1325  -50.8827  -55.1465 N.am      3 UNK        -0.4139 
     60 C          33.3014  -50.2406  -55.9775 C.2       2 UNK         0.5016 
     61 O          32.0813  -50.4020  -55.9960 O.2       2 UNK        -0.5319 
     62 CA         33.9502  -49.1943  -56.8997 C.3       2 UNK         0.0286 
     63 CB         33.1180  -48.9386  -58.1684 C.3       2 UNK        -0.1963 
     64 N          34.1212  -47.9301  -56.1862 N.am      2 UNK        -0.4790 
     65 C          35.0297  -47.6894  -55.2329 C.2       1 UNK         0.5024 
     66 O          35.9130  -48.4966  -54.9285 O.2       1 UNK        -0.4888 
     67 H67        35.8939  -48.0866  -50.5077 H         1 UNK         0.0892 
     68 H68        36.6104  -46.5137  -50.8656 H         1 UNK         0.0892 
     69 H69        35.0600  -46.6061  -50.0269 H         1 UNK         0.0892 
     70 H70        36.3911  -45.9740  -53.0183 H         1 UNK         0.3107 
     71 H71        35.6708  -45.6795  -55.0499 H         1 UNK         0.0773 
     72 H72        33.4970  -44.8938  -53.7881 H         1 UNK         0.0680 
     73 H73        32.7523  -46.3363  -54.3927 H         1 UNK         0.0680 
     74 H74        33.5512  -42.6884  -54.9913 H         1 UNK         0.0650 
     75 H75        32.6768  -42.4620  -56.4863 H         1 UNK         0.0650 
     76 H76        32.3250  -42.9680  -52.9227 H         1 UNK         0.1397 
     77 H77        28.0530  -43.3139  -52.9929 H         1 UNK         0.1363 
     78 H78        30.2644  -43.3744  -56.6628 H         1 UNK         0.1355 
     79 H79        26.9080  -43.7904  -54.9862 H         1 UNK         0.0707 
     80 H80        27.8239  -44.4768  -56.3027 H         1 UNK         0.0707 
     81 H81        25.2826  -43.5092  -56.7072 H         1 UNK         0.1034 
     82 H82        24.9586  -41.8731  -57.1623 H         1 UNK         0.1034 
     83 H83        24.5972  -43.4711  -58.9959 H         1 UNK         0.0482 
     84 H84        25.0274  -40.2741  -60.5489 H         1 UNK         0.3460 
     85 H85        24.0336  -41.1276  -59.3985 H         1 UNK         0.3460 
     86 H86        27.3552  -44.3388  -58.5561 H         1 UNK         0.2989 
     87 H87        26.8482  -47.1194  -60.6523 H         1 UNK         0.0559 
     88 H88        27.5445  -45.5521  -62.4735 H         1 UNK         0.0848 
     89 H89        28.8793  -46.5592  -61.9470 H         1 UNK         0.0848 
     90 H90        28.7827  -44.8744  -61.4279 H         1 UNK         0.0848 
     91 H91        29.2875  -46.4730  -59.5429 H         1 UNK         0.3144 
     92 H92        29.8521  -48.1604  -58.0736 H         1 UNK         0.0727 
     93 H93        30.8466  -47.0092  -56.1416 H         1 UNK         0.0790 
     94 H94        29.3329  -46.1961  -55.7793 H         1 UNK         0.0790 
     95 H95        30.2285  -45.7916  -57.2434 H         1 UNK         0.0790 
     96 H96        29.0192  -48.5764  -55.4326 H         1 UNK         0.3215 
     97 H97        26.9930  -51.4386  -55.8586 H         1 UNK         0.0863 
     98 H98        28.6873  -52.5391  -54.4371 H         1 UNK         0.0808 
     99 H99        29.8754  -51.3009  -54.8355 H         1 UNK         0.0808 
    100 H100       29.2937  -52.3929  -56.0801 H         1 UNK         0.0808 
    101 H101       28.2671  -49.7853  -53.7518 H         1 UNK         0.3118 
    102 H102       25.3315  -48.0760  -52.9433 H         1 UNK         0.0546 
    103 H103       24.6050  -50.2361  -51.9385 H         1 UNK         0.0828 
    104 H104       25.3330  -49.1985  -50.7251 H         1 UNK         0.0828 
    105 H105       26.2426  -50.5577  -51.3877 H         1 UNK         0.0828 
    106 H106       27.8085  -48.6598  -51.5328 H         1 UNK         0.3005 
    107 H107       29.6740  -46.0587  -53.0326 H         1 UNK         0.1257 
    108 H108       28.5815  -46.1803  -50.1676 H         1 UNK         0.0775 
    109 H109       28.1684  -44.9031  -51.2690 H         1 UNK         0.0775 
    110 H110       29.2162  -42.7023  -50.9086 H         1 UNK         0.0840 
    111 H111       30.9350  -42.4103  -50.9120 H         1 UNK         0.0840 
    112 H112       30.3672  -47.7309  -50.8897 H         1 UNK         0.2987 
    113 H113       31.9630  -49.4005  -51.3119 H         1 UNK         0.0785 
    114 H114       30.8804  -51.6308  -50.8782 H         1 UNK         0.0798 
    115 H115       29.6459  -51.2872  -52.0856 H         1 UNK         0.0798 
    116 H116       29.7234  -50.3454  -50.6013 H         1 UNK         0.0798 
    117 H117       31.7933  -50.2649  -54.0468 H         1 UNK         0.3079 
    118 H118       34.7902  -52.2340  -53.7602 H         1 UNK         0.0794 
    119 H119       32.9567  -53.8709  -53.9191 H         1 UNK         0.0786 
    120 H120       33.6097  -53.5411  -55.5160 H         1 UNK         0.0786 
    121 H121       32.0678  -52.8407  -55.0260 H         1 UNK         0.0786 
    122 H122       35.0959  -50.5680  -55.1504 H         1 UNK         0.3032 
    123 H123       34.9289  -49.5683  -57.2095 H         1 UNK         0.1094 
    124 H124       33.6285  -48.2550  -58.8469 H         1 UNK         0.0794 
    125 H125       32.9416  -49.8670  -58.7132 H         1 UNK         0.0794 
    126 H126       32.1451  -48.5099  -57.9311 H         1 UNK         0.0794 
    127 H127       33.4397  -47.2069  -56.3754 H         1 UNK         0.3016 
@<TRIPOS>BOND
     1    1    2 1    
     2    1   67 1    
     3    1   68 1    
     4    1   69 1    
     5    2    3 2    
     6    2    4 am   BACKBONE|DICT|INTERRES
     7    4    5 1    
     8    4   70 1    
     9    5    6 1    
    10    5   65 1    
    11    5   71 1    
    12    6    7 1    
    13    6   72 1    
    14    6   73 1    
    15    7    8 1    
    16    8    9 1    
    17    8   74 1    
    18    8   75 1    
    19    9   10 ar   
    20    9   14 ar   
    21   10   11 ar   
    22   10   76 1    
    23   11   12 ar   
    24   11   48 1    
    25   12   13 ar   
    26   12   77 1    
    27   13   14 ar   
    28   13   15 1    
    29   14   78 1    
    30   15   16 1    
    31   15   79 1    
    32   15   80 1    
    33   16   17 1    
    34   17   18 1    
    35   17   81 1    
    36   17   82 1    
    37   18   19 1    
    38   18   22 1    
    39   18   83 1    
    40   19   20 am   BACKBONE|DICT|INTERRES
    41   19   21 2    
    42   20   84 1    
    43   20   85 1    
    44   22   23 am   BACKBONE|DICT|INTERRES
    45   22   86 1    
    46   23   24 2    
    47   23   25 1    
    48   25   26 1    
    49   25   27 1    
    50   25   87 1    
    51   26   88 1    
    52   26   89 1    
    53   26   90 1    
    54   27   28 am   BACKBONE|DICT|INTERRES
    55   27   91 1    
    56   28   29 2    
    57   28   30 1    
    58   30   31 1    
    59   30   32 1    
    60   30   92 1    
    61   31   93 1    
    62   31   94 1    
    63   31   95 1    
    64   32   33 am   BACKBONE|DICT|INTERRES
    65   32   96 1    
    66   33   34 2    
    67   33   35 1    
    68   35   36 1    
    69   35   37 1    
    70   35   97 1    
    71   36   98 1    
    72   36   99 1    
    73   36  100 1    
    74   37   38 am   BACKBONE|DICT|INTERRES
    75   37  101 1    
    76   38   39 2    
    77   38   40 1    
    78   40   41 1    
    79   40   42 1    
    80   40  102 1    
    81   41  103 1    
    82   41  104 1    
    83   41  105 1    
    84   42   43 am   BACKBONE|DICT|INTERRES
    85   42  106 1    
    86   43   44 2    
    87   43   45 1    
    88   45   46 1    
    89   45   49 1    
    90   45  107 1    
    91   46   47 1    
    92   46  108 1    
    93   46  109 1    
    94   47   48 1    
    95   48  110 1    
    96   48  111 1    
    97   49   50 am   BACKBONE|DICT|INTERRES
    98   49  112 1    
    99   50   51 2    
   100   50   52 1    
   101   52   53 1    
   102   52   54 1    
   103   52  113 1    
   104   53  114 1    
   105   53  115 1    
   106   53  116 1    
   107   54   55 am   BACKBONE|DICT|INTERRES
   108   54  117 1    
   109   55   56 2    
   110   55   57 1    
   111   57   58 1    
   112   57   59 1    
   113   57  118 1    
   114   58  119 1    
   115   58  120 1    
   116   58  121 1    
   117   59   60 am   BACKBONE|DICT|INTERRES
   118   59  122 1    
   119   60   61 2    
   120   60   62 1    
   121   62   63 1    
   122   62   64 1    
   123   62  123 1    
   124   63  124 1    
   125   63  125 1    
   126   63  126 1    
   127   64   65 am   BACKBONE|DICT|INTERRES
   128   64  127 1    
   129   65   66 2    
@<TRIPOS>SUBSTRUCTURE
     1 UNK         1 GROUP             0       ****    0 ROOT    
