@<TRIPOS>MOLECULE
3R134
127   129    1
SMALL
USER_CHARGES


@<TRIPOS>ATOM
      1 CA         38.2934  -44.1231  -49.9524 C.3       0 UNK        -0.1968 
      2 C          37.2960  -44.6148  -50.9913 C.2       0 UNK         0.4852 
      3 O          37.7040  -45.1076  -52.0443 O.2       0 UNK        -0.5359 
      4 N          35.9948  -44.4764  -50.7065 N.am      1 UNK        -0.4300 
      5 CA         34.8912  -44.9302  -51.5590 C.3       1 UNK         0.0863 
      6 C6         33.5386  -44.3196  -51.1185 C.3       11 UNK        -0.0953 
      7 S7         33.5529  -42.4971  -51.2308 S.3       11 UNK        -0.2369 
      8 C8         31.8386  -42.1375  -51.7451 C.3       11 UNK         0.0226 
      9 C9         31.5227  -42.3163  -53.2327 C.ar      11 UNK        -0.0699 
     10 C10        32.3463  -43.0319  -54.1144 C.ar      11 UNK        -0.0804 
     11 C11        31.9792  -43.2040  -55.4519 C.ar      11 UNK        -0.0871 
     12 C12        30.8086  -42.6093  -55.9264 C.ar      11 UNK        -0.1008 
     13 C13        29.9620  -41.9180  -55.0584 C.ar      11 UNK        -0.0735 
     14 C14        30.3277  -41.7725  -53.7172 C.ar      11 UNK        -0.0945 
     15 C15        28.6362  -41.3632  -55.5600 C.3       11 UNK         0.0169 
     16 S16        27.3811  -42.6788  -55.7142 S.3       11 UNK        -0.2669 
     17 C17        27.8391  -43.4417  -57.3095 C.3       11 UNK        -0.0850 
     18 CA         26.6040  -43.9394  -58.0987 C.3       10 UNK         0.0855 
     19 C          26.9788  -44.2564  -59.5696 C.2       10 UNK         0.5543 
     20 N          26.5108  -43.4595  -60.5199 N.am      10 UNK        -0.7343 
     21 O          27.7287  -45.1895  -59.8469 O.2       10 UNK        -0.5027 
     22 N          26.0058  -45.1200  -57.4670 N.am      10 UNK        -0.4495 
     23 C          24.7336  -45.4989  -57.6313 C.2       10 UNK         0.4903 
     24 O          23.8817  -44.8207  -58.2093 O.2       10 UNK        -0.4860 
     25 CA         24.3745  -46.8859  -57.0694 C.3       9 UNK         0.0227 
     26 CB         22.8971  -47.2738  -57.2896 C.3       9 UNK        -0.1964 
     27 N          25.2742  -47.9235  -57.5839 N.am      9 UNK        -0.4231 
     28 C          25.4713  -48.2875  -58.8615 C.2       9 UNK         0.5014 
     29 O          24.8396  -47.8317  -59.8158 O.2       9 UNK        -0.5270 
     30 CA         26.5682  -49.3351  -59.1357 C.3       8 UNK         0.0284 
     31 CB         27.8044  -48.6584  -59.7498 C.3       8 UNK        -0.1977 
     32 N          26.9771  -50.0852  -57.9445 N.am      8 UNK        -0.4342 
     33 C          26.2358  -51.0288  -57.3467 C.2       8 UNK         0.5039 
     34 O          25.1585  -51.4335  -57.7852 O.2       8 UNK        -0.5547 
     35 CA         26.7653  -51.5870  -56.0142 C.3       7 UNK         0.0281 
     36 CB         27.8063  -52.6896  -56.2620 C.3       7 UNK        -0.1963 
     37 N          27.3347  -50.5508  -55.1461 N.am      7 UNK        -0.4444 
     38 C          26.6435  -49.5261  -54.6245 C.2       7 UNK         0.5104 
     39 O          25.4369  -49.3559  -54.7922 O.2       7 UNK        -0.5100 
     40 CA         27.4372  -48.4866  -53.8190 C.3       6 UNK         0.0396 
     41 CB         27.6742  -48.9670  -52.3787 C.3       6 UNK        -0.1801 
     42 N          28.7151  -48.1623  -54.4515 N.am      6 UNK        -0.4747 
     43 C          28.8510  -47.4641  -55.5893 C.2       6 UNK         0.5012 
     44 O          27.9093  -46.9728  -56.2141 O.2       6 UNK        -0.5003 
     45 CA         30.2899  -47.3142  -56.1221 C.3       5 UNK         0.0782 
     46 C46        30.9849  -46.1371  -55.3973 C.3       11 UNK        -0.0868 
     47 S47        32.7327  -45.8643  -55.8751 S.3       11 UNK        -0.2515 
     48 C48        32.7932  -44.1038  -56.3734 C.3       11 UNK         0.0199 
     49 N          31.0324  -48.5735  -56.0026 N.am      5 UNK        -0.4607 
     50 C          30.7353  -49.6941  -56.6779 C.2       4 UNK         0.5031 
     51 O          29.8125  -49.7775  -57.4866 O.2       4 UNK        -0.5119 
     52 CA         31.5726  -50.9484  -56.3737 C.3       4 UNK         0.0263 
     53 CB         32.8226  -50.9850  -57.2668 C.3       4 UNK        -0.1967 
     54 N          31.9744  -51.0511  -54.9704 N.am      4 UNK        -0.4237 
     55 C          31.1372  -51.1026  -53.9232 C.2       3 UNK         0.4908 
     56 O          29.9123  -51.1572  -54.0292 O.2       3 UNK        -0.5102 
     57 CA         31.7720  -51.0214  -52.5221 C.3       3 UNK         0.0241 
     58 CB         31.9576  -52.4284  -51.9331 C.3       3 UNK        -0.1971 
     59 N          33.0564  -50.3080  -52.5105 N.am      3 UNK        -0.4139 
     60 C          33.2049  -49.0159  -52.8361 C.2       2 UNK         0.5016 
     61 O          32.2645  -48.2725  -53.1250 O.2       2 UNK        -0.5319 
     62 CA         34.6477  -48.5076  -52.9592 C.3       2 UNK         0.0286 
     63 CB         35.2029  -48.8362  -54.3560 C.3       2 UNK        -0.1963 
     64 N          34.7176  -47.0605  -52.7608 N.am      2 UNK        -0.4790 
     65 C          34.8238  -46.4699  -51.5655 C.2       1 UNK         0.5024 
     66 O          34.8740  -47.0866  -50.4978 O.2       1 UNK        -0.4888 
     67 H67        38.9234  -44.9470  -49.6182 H         1 UNK         0.0892 
     68 H68        38.9355  -43.3551  -50.3828 H         1 UNK         0.0892 
     69 H69        37.7976  -43.6996  -49.0790 H         1 UNK         0.0892 
     70 H70        35.7196  -44.0736  -49.8224 H         1 UNK         0.3107 
     71 H71        35.1021  -44.5936  -52.5766 H         1 UNK         0.0773 
     72 H72        33.3009  -44.6001  -50.0905 H         1 UNK         0.0680 
     73 H73        32.7268  -44.7108  -51.7352 H         1 UNK         0.0680 
     74 H74        31.6302  -41.1029  -51.4682 H         1 UNK         0.0650 
     75 H75        31.1552  -42.7539  -51.1593 H         1 UNK         0.0650 
     76 H76        33.2565  -43.4961  -53.7682 H         1 UNK         0.1397 
     77 H77        30.5281  -42.7362  -56.9618 H         1 UNK         0.1363 
     78 H78        29.6699  -41.2433  -53.0410 H         1 UNK         0.1355 
     79 H79        28.7747  -40.8532  -56.5144 H         1 UNK         0.0707 
     80 H80        28.2609  -40.6076  -54.8681 H         1 UNK         0.0707 
     81 H81        28.3779  -42.7012  -57.9032 H         1 UNK         0.1034 
     82 H82        28.5391  -44.2597  -57.1292 H         1 UNK         0.1034 
     83 H83        25.8656  -43.1343  -58.0997 H         1 UNK         0.0482 
     84 H84        25.8976  -42.6901  -60.2996 H         1 UNK         0.3460 
     85 H85        26.7596  -43.6432  -61.4793 H         1 UNK         0.3460 
     86 H86        26.6536  -45.7606  -57.0154 H         1 UNK         0.2989 
     87 H87        24.5460  -46.8386  -55.9930 H         1 UNK         0.0559 
     88 H88        22.2308  -46.5497  -56.8193 H         1 UNK         0.0848 
     89 H89        22.6761  -48.2485  -56.8543 H         1 UNK         0.0848 
     90 H90        22.6382  -47.3124  -58.3481 H         1 UNK         0.0848 
     91 H91        25.8573  -48.3648  -56.8851 H         1 UNK         0.3144 
     92 H92        26.1692  -50.0429  -59.8653 H         1 UNK         0.0727 
     93 H93        28.2548  -47.9444  -59.0585 H         1 UNK         0.0790 
     94 H94        27.5428  -48.1100  -60.6558 H         1 UNK         0.0790 
     95 H95        28.5659  -49.3898  -60.0208 H         1 UNK         0.0790 
     96 H96        27.8991  -49.8716  -57.5694 H         1 UNK         0.3215 
     97 H97        25.9206  -52.0305  -55.4827 H         1 UNK         0.0863 
     98 H98        28.1699  -53.1126  -55.3253 H         1 UNK         0.0808 
     99 H99        28.6654  -52.3142  -56.8171 H         1 UNK         0.0808 
    100 H100       27.3762  -53.5066  -56.8427 H         1 UNK         0.0808 
    101 H101       28.3163  -50.6485  -54.8949 H         1 UNK         0.3118 
    102 H102       26.8417  -47.5720  -53.7751 H         1 UNK         0.0546 
    103 H103       28.2679  -49.8807  -52.3442 H         1 UNK         0.0828 
    104 H104       26.7274  -49.1767  -51.8793 H         1 UNK         0.0828 
    105 H105       28.1901  -48.2099  -51.7881 H         1 UNK         0.0828 
    106 H106       29.5476  -48.5453  -54.0241 H         1 UNK         0.3005 
    107 H107       30.2197  -47.0702  -57.1847 H         1 UNK         0.1257 
    108 H108       30.4011  -45.2361  -55.5760 H         1 UNK         0.0775 
    109 H109       30.9700  -46.2837  -54.3157 H         1 UNK         0.0775 
    110 H110       33.8320  -43.7711  -56.3809 H         1 UNK         0.0840 
    111 H111       32.4405  -44.0228  -57.4027 H         1 UNK         0.0840 
    112 H112       31.7744  -48.5821  -55.3148 H         1 UNK         0.2987 
    113 H113       30.9611  -51.8219  -56.6056 H         1 UNK         0.0785 
    114 H114       32.5483  -50.9338  -58.3216 H         1 UNK         0.0798 
    115 H115       33.3858  -51.9077  -57.1257 H         1 UNK         0.0798 
    116 H116       33.4910  -50.1472  -57.0636 H         1 UNK         0.0798 
    117 H117       32.9649  -51.0288  -54.7821 H         1 UNK         0.3079 
    118 H118       31.0781  -50.4701  -51.8837 H         1 UNK         0.0794 
    119 H119       32.3270  -52.3845  -50.9083 H         1 UNK         0.0786 
    120 H120       32.6586  -53.0244  -52.5190 H         1 UNK         0.0786 
    121 H121       31.0101  -52.9690  -51.9105 H         1 UNK         0.0786 
    122 H122       33.8759  -50.8556  -52.2878 H         1 UNK         0.3032 
    123 H123       35.2651  -49.0065  -52.2080 H         1 UNK         0.1094 
    124 H124       34.6020  -48.3859  -55.1477 H         1 UNK         0.0794 
    125 H125       36.2258  -48.4763  -54.4691 H         1 UNK         0.0794 
    126 H126       35.2222  -49.9124  -54.5318 H         1 UNK         0.0794 
    127 H127       34.6131  -46.4902  -53.5881 H         1 UNK         0.3016 
@<TRIPOS>BOND
     1    1    2 1    
     2    1   67 1    
     3    1   68 1    
     4    1   69 1    
     5    2    3 2    
     6    2    4 am   BACKBONE|DICT|INTERRES
     7    4    5 1    
     8    4   70 1    
     9    5    6 1    
    10    5   65 1    
    11    5   71 1    
    12    6    7 1    
    13    6   72 1    
    14    6   73 1    
    15    7    8 1    
    16    8    9 1    
    17    8   74 1    
    18    8   75 1    
    19    9   10 ar   
    20    9   14 ar   
    21   10   11 ar   
    22   10   76 1    
    23   11   12 ar   
    24   11   48 1    
    25   12   13 ar   
    26   12   77 1    
    27   13   14 ar   
    28   13   15 1    
    29   14   78 1    
    30   15   16 1    
    31   15   79 1    
    32   15   80 1    
    33   16   17 1    
    34   17   18 1    
    35   17   81 1    
    36   17   82 1    
    37   18   19 1    
    38   18   22 1    
    39   18   83 1    
    40   19   20 am   BACKBONE|DICT|INTERRES
    41   19   21 2    
    42   20   84 1    
    43   20   85 1    
    44   22   23 am   BACKBONE|DICT|INTERRES
    45   22   86 1    
    46   23   24 2    
    47   23   25 1    
    48   25   26 1    
    49   25   27 1    
    50   25   87 1    
    51   26   88 1    
    52   26   89 1    
    53   26   90 1    
    54   27   28 am   BACKBONE|DICT|INTERRES
    55   27   91 1    
    56   28   29 2    
    57   28   30 1    
    58   30   31 1    
    59   30   32 1    
    60   30   92 1    
    61   31   93 1    
    62   31   94 1    
    63   31   95 1    
    64   32   33 am   BACKBONE|DICT|INTERRES
    65   32   96 1    
    66   33   34 2    
    67   33   35 1    
    68   35   36 1    
    69   35   37 1    
    70   35   97 1    
    71   36   98 1    
    72   36   99 1    
    73   36  100 1    
    74   37   38 am   BACKBONE|DICT|INTERRES
    75   37  101 1    
    76   38   39 2    
    77   38   40 1    
    78   40   41 1    
    79   40   42 1    
    80   40  102 1    
    81   41  103 1    
    82   41  104 1    
    83   41  105 1    
    84   42   43 am   BACKBONE|DICT|INTERRES
    85   42  106 1    
    86   43   44 2    
    87   43   45 1    
    88   45   46 1    
    89   45   49 1    
    90   45  107 1    
    91   46   47 1    
    92   46  108 1    
    93   46  109 1    
    94   47   48 1    
    95   48  110 1    
    96   48  111 1    
    97   49   50 am   BACKBONE|DICT|INTERRES
    98   49  112 1    
    99   50   51 2    
   100   50   52 1    
   101   52   53 1    
   102   52   54 1    
   103   52  113 1    
   104   53  114 1    
   105   53  115 1    
   106   53  116 1    
   107   54   55 am   BACKBONE|DICT|INTERRES
   108   54  117 1    
   109   55   56 2    
   110   55   57 1    
   111   57   58 1    
   112   57   59 1    
   113   57  118 1    
   114   58  119 1    
   115   58  120 1    
   116   58  121 1    
   117   59   60 am   BACKBONE|DICT|INTERRES
   118   59  122 1    
   119   60   61 2    
   120   60   62 1    
   121   62   63 1    
   122   62   64 1    
   123   62  123 1    
   124   63  124 1    
   125   63  125 1    
   126   63  126 1    
   127   64   65 am   BACKBONE|DICT|INTERRES
   128   64  127 1    
   129   65   66 2    
@<TRIPOS>SUBSTRUCTURE
     1 UNK         1 GROUP             0       ****    0 ROOT    
