@<TRIPOS>MOLECULE
3R134
127   129    1
SMALL
USER_CHARGES


@<TRIPOS>ATOM
      1 CA         29.8065  -46.6570  -48.0807 C.3       0 UNK        -0.1968 
      2 C          31.2079  -46.5595  -48.6662 C.2       0 UNK         0.4852 
      3 O          32.1854  -46.7998  -47.9554 O.2       0 UNK        -0.5359 
      4 N          31.3097  -46.1993  -49.9521 N.am      1 UNK        -0.4300 
      5 CA         32.5619  -46.1026  -50.7106 C.3       1 UNK         0.0863 
      6 C6         32.3489  -45.4012  -52.0763 C.3       11 UNK        -0.0953 
      7 S7         31.7296  -43.6971  -51.8623 S.3       11 UNK        -0.2369 
      8 C8         32.8956  -42.7249  -52.8663 C.3       11 UNK         0.0226 
      9 C9         32.5368  -42.7820  -54.3435 C.ar      11 UNK        -0.0699 
     10 C10        33.2339  -43.6236  -55.2150 C.ar      11 UNK        -0.0804 
     11 C11        32.8898  -43.6815  -56.5699 C.ar      11 UNK        -0.0871 
     12 C12        31.8606  -42.8680  -57.0560 C.ar      11 UNK        -0.1008 
     13 C13        31.1315  -42.0545  -56.1853 C.ar      11 UNK        -0.0735 
     14 C14        31.4851  -42.0026  -54.8342 C.ar      11 UNK        -0.0945 
     15 C15        29.9303  -41.2698  -56.6883 C.3       11 UNK         0.0169 
     16 S16        28.4048  -42.2624  -56.5662 S.3       11 UNK        -0.2669 
     17 C17        28.5166  -43.3066  -58.0609 C.3       11 UNK        -0.0850 
     18 CA         27.1212  -43.7926  -58.5388 C.3       10 UNK         0.0855 
     19 C          27.1501  -44.3192  -60.0067 C.2       10 UNK         0.5543 
     20 N          26.4951  -45.4241  -60.3428 N.am      10 UNK        -0.7343 
     21 O          27.7689  -43.7029  -60.8706 O.2       10 UNK        -0.5027 
     22 N          26.5213  -44.7386  -57.5808 N.am      10 UNK        -0.4495 
     23 C          25.2115  -44.8520  -57.3330 C.2       10 UNK         0.4903 
     24 O          24.3537  -44.1025  -57.8034 O.2       10 UNK        -0.4860 
     25 CA         24.8032  -46.0396  -56.4392 C.3       9 UNK         0.0227 
     26 CB         23.2766  -46.1596  -56.2485 C.3       9 UNK        -0.1964 
     27 N          25.3679  -47.3085  -56.9173 N.am      9 UNK        -0.4231 
     28 C          25.2020  -47.8786  -58.1213 C.2       9 UNK         0.5014 
     29 O          24.5028  -47.4004  -59.0150 O.2       9 UNK        -0.5270 
     30 CA         25.9776  -49.1779  -58.4119 C.3       8 UNK         0.0284 
     31 CB         27.1270  -48.9019  -59.3954 C.3       8 UNK        -0.1977 
     32 N          26.5252  -49.8259  -57.2184 N.am      8 UNK        -0.4342 
     33 C          25.8068  -50.4817  -56.2970 C.2       8 UNK         0.5039 
     34 O          24.5883  -50.6458  -56.3629 O.2       8 UNK        -0.5547 
     35 CA         26.5810  -51.0204  -55.0842 C.3       7 UNK         0.0281 
     36 CB         27.2377  -52.3725  -55.4083 C.3       7 UNK        -0.1963 
     37 N          27.6011  -50.0710  -54.6331 N.am      7 UNK        -0.4444 
     38 C          27.3418  -48.9646  -53.9227 C.2       7 UNK         0.5104 
     39 O          26.2204  -48.6529  -53.5228 O.2       7 UNK        -0.5100 
     40 CA         28.5306  -48.0345  -53.6299 C.3       6 UNK         0.0396 
     41 CB         29.2682  -48.4844  -52.3607 C.3       6 UNK        -0.1801 
     42 N          29.4770  -47.9550  -54.7447 N.am      6 UNK        -0.4747 
     43 C          29.2158  -47.3411  -55.9103 C.2       6 UNK         0.5012 
     44 O          28.1610  -46.7557  -56.1565 O.2       6 UNK        -0.5003 
     45 CA         30.3097  -47.3867  -56.9963 C.3       5 UNK         0.0782 
     46 C46        31.2735  -46.2038  -56.7709 C.3       11 UNK        -0.0868 
     47 S47        32.3998  -45.9164  -58.1774 S.3       11 UNK        -0.2515 
     48 C48        33.5702  -44.6885  -57.4900 C.3       11 UNK         0.0199 
     49 N          31.0453  -48.6512  -57.0415 N.am      5 UNK        -0.4607 
     50 C          30.5426  -49.8924  -57.0519 C.2       4 UNK         0.5031 
     51 O          29.3428  -50.1457  -57.1526 O.2       4 UNK        -0.5119 
     52 CA         31.5447  -51.0443  -56.8420 C.3       4 UNK         0.0263 
     53 CB         31.8247  -51.7559  -58.1746 C.3       4 UNK        -0.1967 
     54 N          32.8179  -50.6279  -56.2322 N.am      4 UNK        -0.4237 
     55 C          32.9483  -50.0359  -55.0350 C.2       3 UNK         0.4908 
     56 O          32.0033  -49.8000  -54.2760 O.2       3 UNK        -0.5102 
     57 CA         34.3546  -49.5470  -54.6752 C.3       3 UNK         0.0241 
     58 CB         34.7007  -48.2684  -55.4673 C.3       3 UNK        -0.1971 
     59 N          34.4061  -49.2717  -53.2435 N.am      3 UNK        -0.4139 
     60 C          35.5122  -49.1474  -52.5039 C.2       2 UNK         0.5016 
     61 O          36.6517  -49.2692  -52.9587 O.2       2 UNK        -0.5319 
     62 CA         35.3066  -48.8029  -51.0147 C.3       2 UNK         0.0286 
     63 CB         36.6357  -48.6586  -50.2487 C.3       2 UNK        -0.1963 
     64 N          34.5273  -47.5716  -50.8430 N.am      2 UNK        -0.4790 
     65 C          33.1920  -47.4964  -50.9072 C.2       1 UNK         0.5024 
     66 O          32.4727  -48.4691  -51.1454 O.2       1 UNK        -0.4888 
     67 H67        29.7014  -45.9695  -47.2418 H         1 UNK         0.0892 
     68 H68        29.6214  -47.6680  -47.7189 H         1 UNK         0.0892 
     69 H69        29.0390  -46.4148  -48.8158 H         1 UNK         0.0892 
     70 H70        30.4720  -46.0024  -50.4790 H         1 UNK         0.3107 
     71 H71        33.2555  -45.5002  -50.1195 H         1 UNK         0.0773 
     72 H72        31.6369  -45.9514  -52.6946 H         1 UNK         0.0680 
     73 H73        33.2829  -45.3764  -52.6403 H         1 UNK         0.0680 
     74 H74        32.8641  -41.6877  -52.5296 H         1 UNK         0.0650 
     75 H75        33.9169  -43.0680  -52.6940 H         1 UNK         0.0650 
     76 H76        34.0260  -44.2522  -54.8320 H         1 UNK         0.1397 
     77 H77        31.5817  -42.9253  -58.0993 H         1 UNK         0.1363 
     78 H78        30.9223  -41.3762  -54.1554 H         1 UNK         0.1355 
     79 H79        30.0880  -40.9367  -57.7151 H         1 UNK         0.0707 
     80 H80        29.8064  -40.3639  -56.0929 H         1 UNK         0.0707 
     81 H81        29.1716  -44.1552  -57.8664 H         1 UNK         0.1034 
     82 H82        29.0058  -42.7190  -58.8396 H         1 UNK         0.1034 
     83 H83        26.4825  -42.9087  -58.5853 H         1 UNK         0.0482 
     84 H84        25.9121  -45.9121  -59.6762 H         1 UNK         0.3460 
     85 H85        26.5242  -45.7328  -61.3012 H         1 UNK         0.3460 
     86 H86        27.1518  -45.4063  -57.1459 H         1 UNK         0.2989 
     87 H87        25.2465  -45.8564  -55.4592 H         1 UNK         0.0559 
     88 H88        23.0247  -46.9876  -55.5859 H         1 UNK         0.0848 
     89 H89        22.7600  -46.3194  -57.1955 H         1 UNK         0.0848 
     90 H90        22.8664  -45.2521  -55.8038 H         1 UNK         0.0848 
     91 H91        26.0327  -47.7445  -56.2922 H         1 UNK         0.3144 
     92 H92        25.2815  -49.8734  -58.8854 H         1 UNK         0.0727 
     93 H93        27.6740  -49.8140  -59.6355 H         1 UNK         0.0790 
     94 H94        27.8378  -48.1817  -58.9902 H         1 UNK         0.0790 
     95 H95        26.7500  -48.4946  -60.3344 H         1 UNK         0.0790 
     96 H96        27.5395  -49.8154  -57.1189 H         1 UNK         0.3215 
     97 H97        25.8663  -51.1767  -54.2729 H         1 UNK         0.0863 
     98 H98        27.7478  -52.7841  -54.5373 H         1 UNK         0.0808 
     99 H99        27.9661  -52.2907  -56.2159 H         1 UNK         0.0808 
    100 H100       26.4891  -53.1024  -55.7193 H         1 UNK         0.0808 
    101 H101       28.5432  -50.2174  -54.9689 H         1 UNK         0.3118 
    102 H102       28.1323  -47.0332  -53.4514 H         1 UNK         0.0546 
    103 H103       28.5869  -48.5504  -51.5114 H         1 UNK         0.0828 
    104 H104       30.0513  -47.7779  -52.0925 H         1 UNK         0.0828 
    105 H105       29.7337  -49.4631  -52.4852 H         1 UNK         0.0828 
    106 H106       30.3641  -48.4341  -54.6272 H         1 UNK         0.3005 
    107 H107       29.8125  -47.2612  -57.9597 H         1 UNK         0.1257 
    108 H108       31.8663  -46.3570  -55.8667 H         1 UNK         0.0775 
    109 H109       30.7069  -45.2872  -56.6038 H         1 UNK         0.0775 
    110 H110       34.3594  -45.2232  -56.9592 H         1 UNK         0.0840 
    111 H111       34.0567  -44.1594  -58.3105 H         1 UNK         0.0840 
    112 H112       32.0482  -48.5615  -56.9901 H         1 UNK         0.2987 
    113 H113       31.0725  -51.7574  -56.1632 H         1 UNK         0.0785 
    114 H114       32.3190  -51.0965  -58.8893 H         1 UNK         0.0798 
    115 H115       30.8972  -52.0990  -58.6359 H         1 UNK         0.0798 
    116 H116       32.4559  -52.6333  -58.0323 H         1 UNK         0.0798 
    117 H117       33.6477  -50.7737  -56.7901 H         1 UNK         0.3079 
    118 H118       35.0684  -50.3387  -54.9125 H         1 UNK         0.0794 
    119 H119       34.0217  -47.4500  -55.2250 H         1 UNK         0.0786 
    120 H120       34.6434  -48.4349  -56.5436 H         1 UNK         0.0786 
    121 H121       35.7146  -47.9298  -55.2535 H         1 UNK         0.0786 
    122 H122       33.4970  -49.1860  -52.7938 H         1 UNK         0.3032 
    123 H123       34.7592  -49.6372  -50.5690 H         1 UNK         0.1094 
    124 H124       37.2447  -47.8445  -50.6438 H         1 UNK         0.0794 
    125 H125       36.4641  -48.4664  -49.1893 H         1 UNK         0.0794 
    126 H126       37.2278  -49.5723  -50.3171 H         1 UNK         0.0794 
    127 H127       35.0572  -46.7264  -50.6823 H         1 UNK         0.3016 
@<TRIPOS>BOND
     1    1    2 1    
     2    1   67 1    
     3    1   68 1    
     4    1   69 1    
     5    2    3 2    
     6    2    4 am   BACKBONE|DICT|INTERRES
     7    4    5 1    
     8    4   70 1    
     9    5    6 1    
    10    5   65 1    
    11    5   71 1    
    12    6    7 1    
    13    6   72 1    
    14    6   73 1    
    15    7    8 1    
    16    8    9 1    
    17    8   74 1    
    18    8   75 1    
    19    9   10 ar   
    20    9   14 ar   
    21   10   11 ar   
    22   10   76 1    
    23   11   12 ar   
    24   11   48 1    
    25   12   13 ar   
    26   12   77 1    
    27   13   14 ar   
    28   13   15 1    
    29   14   78 1    
    30   15   16 1    
    31   15   79 1    
    32   15   80 1    
    33   16   17 1    
    34   17   18 1    
    35   17   81 1    
    36   17   82 1    
    37   18   19 1    
    38   18   22 1    
    39   18   83 1    
    40   19   20 am   BACKBONE|DICT|INTERRES
    41   19   21 2    
    42   20   84 1    
    43   20   85 1    
    44   22   23 am   BACKBONE|DICT|INTERRES
    45   22   86 1    
    46   23   24 2    
    47   23   25 1    
    48   25   26 1    
    49   25   27 1    
    50   25   87 1    
    51   26   88 1    
    52   26   89 1    
    53   26   90 1    
    54   27   28 am   BACKBONE|DICT|INTERRES
    55   27   91 1    
    56   28   29 2    
    57   28   30 1    
    58   30   31 1    
    59   30   32 1    
    60   30   92 1    
    61   31   93 1    
    62   31   94 1    
    63   31   95 1    
    64   32   33 am   BACKBONE|DICT|INTERRES
    65   32   96 1    
    66   33   34 2    
    67   33   35 1    
    68   35   36 1    
    69   35   37 1    
    70   35   97 1    
    71   36   98 1    
    72   36   99 1    
    73   36  100 1    
    74   37   38 am   BACKBONE|DICT|INTERRES
    75   37  101 1    
    76   38   39 2    
    77   38   40 1    
    78   40   41 1    
    79   40   42 1    
    80   40  102 1    
    81   41  103 1    
    82   41  104 1    
    83   41  105 1    
    84   42   43 am   BACKBONE|DICT|INTERRES
    85   42  106 1    
    86   43   44 2    
    87   43   45 1    
    88   45   46 1    
    89   45   49 1    
    90   45  107 1    
    91   46   47 1    
    92   46  108 1    
    93   46  109 1    
    94   47   48 1    
    95   48  110 1    
    96   48  111 1    
    97   49   50 am   BACKBONE|DICT|INTERRES
    98   49  112 1    
    99   50   51 2    
   100   50   52 1    
   101   52   53 1    
   102   52   54 1    
   103   52  113 1    
   104   53  114 1    
   105   53  115 1    
   106   53  116 1    
   107   54   55 am   BACKBONE|DICT|INTERRES
   108   54  117 1    
   109   55   56 2    
   110   55   57 1    
   111   57   58 1    
   112   57   59 1    
   113   57  118 1    
   114   58  119 1    
   115   58  120 1    
   116   58  121 1    
   117   59   60 am   BACKBONE|DICT|INTERRES
   118   59  122 1    
   119   60   61 2    
   120   60   62 1    
   121   62   63 1    
   122   62   64 1    
   123   62  123 1    
   124   63  124 1    
   125   63  125 1    
   126   63  126 1    
   127   64   65 am   BACKBONE|DICT|INTERRES
   128   64  127 1    
   129   65   66 2    
@<TRIPOS>SUBSTRUCTURE
     1 UNK         1 GROUP             0       ****    0 ROOT    
