@<TRIPOS>MOLECULE
3R134
127   129    1
SMALL
USER_CHARGES


@<TRIPOS>ATOM
      1 CA         37.1475  -44.7051  -55.6815 C.3       0 UNK        -0.1968 
      2 C          35.9501  -45.4033  -55.0537 C.2       0 UNK         0.4852 
      3 O          35.7038  -45.2263  -53.8602 O.2       0 UNK        -0.5359 
      4 N          35.2135  -46.1886  -55.8543 N.am      1 UNK        -0.4300 
      5 CA         34.0123  -46.9506  -55.4776 C.3       1 UNK         0.0863 
      6 C6         32.7996  -46.0553  -55.1037 C.3       11 UNK        -0.0953 
      7 S7         32.3252  -44.9538  -56.4805 S.3       11 UNK        -0.2369 
      8 C8         32.5356  -43.3059  -55.7371 C.3       11 UNK         0.0226 
      9 C9         31.3450  -42.9464  -54.8622 C.ar      11 UNK        -0.0699 
     10 C10        31.3931  -43.1497  -53.4801 C.ar      11 UNK        -0.0804 
     11 C11        30.2775  -42.8676  -52.6876 C.ar      11 UNK        -0.0871 
     12 C12        29.1252  -42.3440  -53.2789 C.ar      11 UNK        -0.1008 
     13 C13        29.0534  -42.1641  -54.6620 C.ar      11 UNK        -0.0735 
     14 C14        30.1770  -42.4443  -55.4454 C.ar      11 UNK        -0.0945 
     15 C15        27.7490  -41.7161  -55.3088 C.3       11 UNK         0.0169 
     16 S16        26.3804  -42.8474  -54.8837 S.3       11 UNK        -0.2669 
     17 C17        25.1934  -42.5482  -56.2373 C.3       11 UNK        -0.0850 
     18 CA         25.0644  -43.7776  -57.1763 C.3       10 UNK         0.0855 
     19 C          23.9188  -43.5790  -58.2113 C.2       10 UNK         0.5543 
     20 N          24.1812  -43.6103  -59.5123 N.am      10 UNK        -0.7343 
     21 O          22.7670  -43.3985  -57.8240 O.2       10 UNK        -0.5027 
     22 N          26.3640  -44.1475  -57.7621 N.am      10 UNK        -0.4495 
     23 C          26.7038  -45.3737  -58.1746 C.2       10 UNK         0.4903 
     24 O          25.9425  -46.3411  -58.1425 O.2       10 UNK        -0.4860 
     25 CA         28.1235  -45.5522  -58.7362 C.3       9 UNK         0.0227 
     26 CB         29.0902  -44.3969  -58.4041 C.3       9 UNK        -0.1964 
     27 N          28.6829  -46.8037  -58.2341 N.am      9 UNK        -0.4231 
     28 C          29.4994  -47.6107  -58.9215 C.2       9 UNK         0.5014 
     29 O          29.8588  -47.3957  -60.0806 O.2       9 UNK        -0.5270 
     30 CA         30.0236  -48.8668  -58.2067 C.3       8 UNK         0.0284 
     31 CB         31.3947  -48.5924  -57.5755 C.3       8 UNK        -0.1977 
     32 N          29.1176  -49.3642  -57.1721 N.am      8 UNK        -0.4342 
     33 C          28.0368  -50.1150  -57.4217 C.2       8 UNK         0.5039 
     34 O          27.6721  -50.4445  -58.5511 O.2       8 UNK        -0.5547 
     35 CA         27.2373  -50.5898  -56.2028 C.3       7 UNK         0.0281 
     36 CB         27.9975  -51.6957  -55.4518 C.3       7 UNK        -0.1963 
     37 N          26.9433  -49.4721  -55.3040 N.am      7 UNK        -0.4444 
     38 C          25.8610  -48.6891  -55.4177 C.2       7 UNK         0.5104 
     39 O          24.9622  -48.8899  -56.2352 O.2       7 UNK        -0.5100 
     40 CA         25.7234  -47.5007  -54.4454 C.3       6 UNK         0.0396 
     41 CB         24.5340  -47.7143  -53.4944 C.3       6 UNK        -0.1801 
     42 N          26.9220  -47.2361  -53.6447 N.am      6 UNK        -0.4747 
     43 C          28.0146  -46.6061  -54.0970 C.2       6 UNK         0.5012 
     44 O          28.1639  -46.2469  -55.2647 O.2       6 UNK        -0.5003 
     45 CA         29.1571  -46.4191  -53.0782 C.3       5 UNK         0.0782 
     46 C46        28.7288  -45.4929  -51.9096 C.3       11 UNK        -0.0868 
     47 S47        30.1658  -44.9872  -50.8959 S.3       11 UNK        -0.2515 
     48 C48        30.2838  -43.1911  -51.2020 C.3       11 UNK         0.0199 
     49 N          29.6625  -47.6969  -52.5592 N.am      5 UNK        -0.4607 
     50 C          30.0392  -48.7674  -53.2658 C.2       4 UNK         0.5031 
     51 O          29.9752  -48.8540  -54.4963 O.2       4 UNK        -0.5119 
     52 CA         30.5298  -49.9673  -52.4506 C.3       4 UNK         0.0263 
     53 CB         29.3306  -50.7913  -51.9358 C.3       4 UNK        -0.1967 
     54 N          31.4085  -50.7408  -53.3211 N.am      4 UNK        -0.4237 
     55 C          32.0627  -51.8744  -53.0501 C.2       3 UNK         0.4908 
     56 O          31.9480  -52.5215  -52.0089 O.2       3 UNK        -0.5102 
     57 CA         33.0637  -52.3286  -54.1256 C.3       3 UNK         0.0241 
     58 CB         32.3594  -52.6476  -55.4577 C.3       3 UNK        -0.1971 
     59 N          34.1036  -51.3160  -54.3370 N.am      3 UNK        -0.4139 
     60 C          35.0374  -50.9883  -53.4305 C.2       2 UNK         0.5016 
     61 O          35.1961  -51.5833  -52.3637 O.2       2 UNK        -0.5319 
     62 CA         35.9604  -49.7996  -53.7566 C.3       2 UNK         0.0286 
     63 CB         37.2975  -50.2991  -54.3283 C.3       2 UNK        -0.1963 
     64 N          35.3919  -48.8025  -54.6711 N.am      2 UNK        -0.4790 
     65 C          34.3284  -48.0249  -54.4130 C.2       1 UNK         0.5024 
     66 O          33.6384  -48.1264  -53.3976 O.2       1 UNK        -0.4888 
     67 H67        37.2505  -44.9410  -56.7405 H         1 UNK         0.0892 
     68 H68        37.0439  -43.6247  -55.5843 H         1 UNK         0.0892 
     69 H69        38.0647  -45.0066  -55.1763 H         1 UNK         0.0892 
     70 H70        35.4800  -46.2712  -56.8256 H         1 UNK         0.3107 
     71 H71        33.7341  -47.5117  -56.3698 H         1 UNK         0.0773 
     72 H72        31.9302  -46.6673  -54.8604 H         1 UNK         0.0680 
     73 H73        33.0151  -45.4734  -54.2077 H         1 UNK         0.0680 
     74 H74        32.6361  -42.5707  -56.5367 H         1 UNK         0.0650 
     75 H75        33.4663  -43.2692  -55.1687 H         1 UNK         0.0650 
     76 H76        32.2830  -43.5611  -53.0238 H         1 UNK         0.1397 
     77 H77        28.2546  -42.1367  -52.6714 H         1 UNK         0.1363 
     78 H78        30.1379  -42.3022  -56.5163 H         1 UNK         0.1355 
     79 H79        27.5028  -40.7066  -54.9770 H         1 UNK         0.0707 
     80 H80        27.8617  -41.6732  -56.3929 H         1 UNK         0.0707 
     81 H81        24.2300  -42.3178  -55.7782 H         1 UNK         0.1034 
     82 H82        25.4765  -41.6571  -56.8002 H         1 UNK         0.1034 
     83 H83        24.7433  -44.6162  -56.5548 H         1 UNK         0.0482 
     84 H84        25.1210  -43.7656  -59.8388 H         1 UNK         0.3460 
     85 H85        23.4299  -43.4842  -60.1722 H         1 UNK         0.3460 
     86 H86        27.0497  -43.4112  -57.8205 H         1 UNK         0.2989 
     87 H87        28.0136  -45.6109  -59.8208 H         1 UNK         0.0559 
     88 H88        28.7522  -43.4470  -58.8189 H         1 UNK         0.0848 
     89 H89        30.0826  -44.5837  -58.8151 H         1 UNK         0.0848 
     90 H90        29.2001  -44.2841  -57.3254 H         1 UNK         0.0848 
     91 H91        28.4233  -47.0407  -57.2824 H         1 UNK         0.3144 
     92 H92        30.1528  -49.6446  -58.9626 H         1 UNK         0.0727 
     93 H93        31.3135  -47.8491  -56.7842 H         1 UNK         0.0790 
     94 H94        32.0998  -48.2112  -58.3155 H         1 UNK         0.0790 
     95 H95        31.8254  -49.4970  -57.1471 H         1 UNK         0.0790 
     96 H96        29.3623  -49.1442  -56.2077 H         1 UNK         0.3215 
     97 H97        26.3014  -51.0233  -56.5633 H         1 UNK         0.0863 
     98 H98        27.4256  -52.0591  -54.5983 H         1 UNK         0.0808 
     99 H99        28.9694  -51.3565  -55.0934 H         1 UNK         0.0808 
    100 H100       28.1781  -52.5507  -56.1047 H         1 UNK         0.0808 
    101 H101       27.6530  -49.2153  -54.6326 H         1 UNK         0.3118 
    102 H102       25.5148  -46.6160  -55.0516 H         1 UNK         0.0546 
    103 H103       24.6774  -48.5880  -52.8576 H         1 UNK         0.0828 
    104 H104       23.6091  -47.8669  -54.0524 H         1 UNK         0.0828 
    105 H105       24.3796  -46.8483  -52.8505 H         1 UNK         0.0828 
    106 H106       26.8994  -47.5368  -52.6807 H         1 UNK         0.3005 
    107 H107       29.9733  -45.9352  -53.6192 H         1 UNK         0.1257 
    108 H108       28.0203  -46.0030  -51.2546 H         1 UNK         0.0775 
    109 H109       28.1973  -44.6146  -52.2743 H         1 UNK         0.0775 
    110 H110       29.4594  -42.6892  -50.6930 H         1 UNK         0.0840 
    111 H111       31.1998  -42.8104  -50.7479 H         1 UNK         0.0840 
    112 H112       29.7658  -47.7319  -51.5553 H         1 UNK         0.2987 
    113 H113       31.1205  -49.6039  -51.6075 H         1 UNK         0.0785 
    114 H114       28.6261  -50.1637  -51.3885 H         1 UNK         0.0798 
    115 H115       29.6458  -51.5759  -51.2488 H         1 UNK         0.0798 
    116 H116       28.7809  -51.2637  -52.7473 H         1 UNK         0.0798 
    117 H117       31.5637  -50.2879  -54.2125 H         1 UNK         0.3079 
    118 H118       33.5444  -53.2429  -53.7701 H         1 UNK         0.0794 
    119 H119       33.0593  -53.0628  -56.1831 H         1 UNK         0.0786 
    120 H120       31.8994  -51.7665  -55.9064 H         1 UNK         0.0786 
    121 H121       31.5707  -53.3872  -55.3125 H         1 UNK         0.0786 
    122 H122       34.0669  -50.7829  -55.1928 H         1 UNK         0.3032 
    123 H123       36.1636  -49.2926  -52.8104 H         1 UNK         0.1094 
    124 H124       37.1665  -50.7896  -55.2936 H         1 UNK         0.0794 
    125 H125       38.0052  -49.4801  -54.4590 H         1 UNK         0.0794 
    126 H126       37.7641  -51.0217  -53.6569 H         1 UNK         0.0794 
    127 H127       35.9026  -48.6390  -55.5272 H         1 UNK         0.3016 
@<TRIPOS>BOND
     1    1    2 1    
     2    1   67 1    
     3    1   68 1    
     4    1   69 1    
     5    2    3 2    
     6    2    4 am   BACKBONE|DICT|INTERRES
     7    4    5 1    
     8    4   70 1    
     9    5    6 1    
    10    5   65 1    
    11    5   71 1    
    12    6    7 1    
    13    6   72 1    
    14    6   73 1    
    15    7    8 1    
    16    8    9 1    
    17    8   74 1    
    18    8   75 1    
    19    9   10 ar   
    20    9   14 ar   
    21   10   11 ar   
    22   10   76 1    
    23   11   12 ar   
    24   11   48 1    
    25   12   13 ar   
    26   12   77 1    
    27   13   14 ar   
    28   13   15 1    
    29   14   78 1    
    30   15   16 1    
    31   15   79 1    
    32   15   80 1    
    33   16   17 1    
    34   17   18 1    
    35   17   81 1    
    36   17   82 1    
    37   18   19 1    
    38   18   22 1    
    39   18   83 1    
    40   19   20 am   BACKBONE|DICT|INTERRES
    41   19   21 2    
    42   20   84 1    
    43   20   85 1    
    44   22   23 am   BACKBONE|DICT|INTERRES
    45   22   86 1    
    46   23   24 2    
    47   23   25 1    
    48   25   26 1    
    49   25   27 1    
    50   25   87 1    
    51   26   88 1    
    52   26   89 1    
    53   26   90 1    
    54   27   28 am   BACKBONE|DICT|INTERRES
    55   27   91 1    
    56   28   29 2    
    57   28   30 1    
    58   30   31 1    
    59   30   32 1    
    60   30   92 1    
    61   31   93 1    
    62   31   94 1    
    63   31   95 1    
    64   32   33 am   BACKBONE|DICT|INTERRES
    65   32   96 1    
    66   33   34 2    
    67   33   35 1    
    68   35   36 1    
    69   35   37 1    
    70   35   97 1    
    71   36   98 1    
    72   36   99 1    
    73   36  100 1    
    74   37   38 am   BACKBONE|DICT|INTERRES
    75   37  101 1    
    76   38   39 2    
    77   38   40 1    
    78   40   41 1    
    79   40   42 1    
    80   40  102 1    
    81   41  103 1    
    82   41  104 1    
    83   41  105 1    
    84   42   43 am   BACKBONE|DICT|INTERRES
    85   42  106 1    
    86   43   44 2    
    87   43   45 1    
    88   45   46 1    
    89   45   49 1    
    90   45  107 1    
    91   46   47 1    
    92   46  108 1    
    93   46  109 1    
    94   47   48 1    
    95   48  110 1    
    96   48  111 1    
    97   49   50 am   BACKBONE|DICT|INTERRES
    98   49  112 1    
    99   50   51 2    
   100   50   52 1    
   101   52   53 1    
   102   52   54 1    
   103   52  113 1    
   104   53  114 1    
   105   53  115 1    
   106   53  116 1    
   107   54   55 am   BACKBONE|DICT|INTERRES
   108   54  117 1    
   109   55   56 2    
   110   55   57 1    
   111   57   58 1    
   112   57   59 1    
   113   57  118 1    
   114   58  119 1    
   115   58  120 1    
   116   58  121 1    
   117   59   60 am   BACKBONE|DICT|INTERRES
   118   59  122 1    
   119   60   61 2    
   120   60   62 1    
   121   62   63 1    
   122   62   64 1    
   123   62  123 1    
   124   63  124 1    
   125   63  125 1    
   126   63  126 1    
   127   64   65 am   BACKBONE|DICT|INTERRES
   128   64  127 1    
   129   65   66 2    
@<TRIPOS>SUBSTRUCTURE
     1 UNK         1 GROUP             0       ****    0 ROOT    
