@<TRIPOS>MOLECULE
3R134
127   129    1
SMALL
USER_CHARGES


@<TRIPOS>ATOM
      1 CA         33.6763  -45.3186  -57.7902 C.3       0 UNK        -0.1968 
      2 C          33.7555  -45.7971  -56.3501 C.2       0 UNK         0.4852 
      3 O          33.2644  -46.8819  -56.0356 O.2       0 UNK        -0.5359 
      4 N          34.3834  -45.0109  -55.4649 N.am      1 UNK        -0.4300 
      5 CA         34.4914  -45.2841  -54.0225 C.3       1 UNK         0.0863 
      6 C6         34.9292  -44.0413  -53.2117 C.3       11 UNK        -0.0953 
      7 S7         33.8530  -42.5892  -53.4798 S.3       11 UNK        -0.2369 
      8 C8         32.5208  -42.8431  -52.2481 C.3       11 UNK         0.0226 
      9 C9         31.2459  -43.5329  -52.7503 C.ar      11 UNK        -0.0699 
     10 C10        30.1798  -43.6839  -51.8540 C.ar      11 UNK        -0.0804 
     11 C11        28.9769  -44.2782  -52.2527 C.ar      11 UNK        -0.0871 
     12 C12        28.8434  -44.7247  -53.5689 C.ar      11 UNK        -0.1008 
     13 C13        29.9046  -44.6168  -54.4695 C.ar      11 UNK        -0.0735 
     14 C14        31.0930  -44.0054  -54.0617 C.ar      11 UNK        -0.0945 
     15 C15        29.7895  -45.2090  -55.8656 C.3       11 UNK         0.0169 
     16 S16        29.2155  -43.9907  -57.0867 S.3       11 UNK        -0.2669 
     17 C17        29.6593  -44.8475  -58.6385 C.3       11 UNK        -0.0850 
     18 CA         28.5904  -44.7129  -59.7547 C.3       10 UNK         0.0855 
     19 C          29.1535  -45.2215  -61.1148 C.2       10 UNK         0.5543 
     20 N          28.6218  -46.2871  -61.7020 N.am      10 UNK        -0.7343 
     21 O          30.0887  -44.6310  -61.6495 O.2       10 UNK        -0.5027 
     22 N          27.3066  -45.3209  -59.3671 N.am      10 UNK        -0.4495 
     23 C          26.1226  -45.0129  -59.9190 C.2       10 UNK         0.4903 
     24 O          25.9819  -44.1581  -60.7945 O.2       10 UNK        -0.4860 
     25 CA         24.8755  -45.7811  -59.4326 C.3       9 UNK         0.0227 
     26 CB         24.4691  -46.8490  -60.4615 C.3       9 UNK        -0.1964 
     27 N          25.0553  -46.4199  -58.1279 N.am      9 UNK        -0.4231 
     28 C          25.2027  -45.7639  -56.9701 C.2       9 UNK         0.5014 
     29 O          25.0281  -44.5502  -56.8520 O.2       9 UNK        -0.5270 
     30 CA         25.6344  -46.5767  -55.7326 C.3       8 UNK         0.0284 
     31 CB         24.4896  -46.6320  -54.7066 C.3       8 UNK        -0.1977 
     32 N          26.1440  -47.9388  -55.9663 N.am      8 UNK        -0.4342 
     33 C          27.1632  -48.2922  -56.7665 C.2       8 UNK         0.5039 
     34 O          27.7379  -47.5075  -57.5220 O.2       8 UNK        -0.5547 
     35 CA         27.6025  -49.7649  -56.7116 C.3       7 UNK         0.0281 
     36 CB         28.9304  -50.0083  -57.4532 C.3       7 UNK        -0.1963 
     37 N          27.7603  -50.1700  -55.3167 N.am      7 UNK        -0.4444 
     38 C          27.1286  -51.1868  -54.7134 C.2       7 UNK         0.5104 
     39 O          26.3482  -51.9449  -55.2895 O.2       7 UNK        -0.5100 
     40 CA         27.3918  -51.3883  -53.2055 C.3       6 UNK         0.0396 
     41 CB         28.4507  -52.4808  -52.9901 C.3       6 UNK        -0.1801 
     42 N          27.8272  -50.1613  -52.5339 N.am      6 UNK        -0.4747 
     43 C          27.0636  -49.0724  -52.3599 C.2       6 UNK         0.5012 
     44 O          25.8491  -49.0664  -52.5580 O.2       6 UNK        -0.5003 
     45 CA         27.7705  -47.7551  -51.9680 C.3       5 UNK         0.0782 
     46 C46        27.2239  -47.1675  -50.6427 C.3       11 UNK        -0.0868 
     47 S47        28.1349  -45.7067  -50.0137 S.3       11 UNK        -0.2515 
     48 C48        27.8206  -44.4173  -51.2667 C.3       11 UNK         0.0199 
     49 N          29.2356  -47.8280  -51.9806 N.am      5 UNK        -0.4607 
     50 C          29.9970  -47.9741  -53.0700 C.2       4 UNK         0.5031 
     51 O          29.5393  -48.2294  -54.1853 O.2       4 UNK        -0.5119 
     52 CA         31.5064  -47.7559  -52.8855 C.3       4 UNK         0.0263 
     53 CB         32.0139  -48.0447  -51.4539 C.3       4 UNK        -0.1967 
     54 N          32.2986  -48.4763  -53.8831 N.am      4 UNK        -0.4237 
     55 C          32.4172  -49.8046  -54.0298 C.2       3 UNK         0.4908 
     56 O          31.8417  -50.6380  -53.3286 O.2       3 UNK        -0.5102 
     57 CA         33.3738  -50.2805  -55.1347 C.3       3 UNK         0.0241 
     58 CB         32.6532  -50.3246  -56.4921 C.3       3 UNK        -0.1971 
     59 N          34.5413  -49.3986  -55.2235 N.am      3 UNK        -0.4139 
     60 C          35.6717  -49.5589  -54.5186 C.2       2 UNK         0.5016 
     61 O          35.9167  -50.5498  -53.8294 O.2       2 UNK        -0.5319 
     62 CA         36.6982  -48.4093  -54.5701 C.3       2 UNK         0.0286 
     63 CB         37.6599  -48.5937  -55.7549 C.3       2 UNK        -0.1963 
     64 N          36.0609  -47.0923  -54.6605 N.am      2 UNK        -0.4790 
     65 C          35.3511  -46.5226  -53.6741 C.2       1 UNK         0.5024 
     66 O          35.3250  -46.9641  -52.5256 O.2       1 UNK        -0.4888 
     67 H67        32.6660  -45.4549  -58.1724 H         1 UNK         0.0892 
     68 H68        33.9346  -44.2640  -57.8830 H         1 UNK         0.0892 
     69 H69        34.3561  -45.8966  -58.4151 H         1 UNK         0.0892 
     70 H70        34.7789  -44.1321  -55.7696 H         1 UNK         0.3107 
     71 H71        33.4884  -45.5362  -53.6814 H         1 UNK         0.0773 
     72 H72        35.9472  -43.7565  -53.4837 H         1 UNK         0.0680 
     73 H73        34.9563  -44.2627  -52.1431 H         1 UNK         0.0680 
     74 H74        32.9136  -43.3946  -51.3931 H         1 UNK         0.0650 
     75 H75        32.2414  -41.8590  -51.8693 H         1 UNK         0.0650 
     76 H76        30.2825  -43.3295  -50.8371 H         1 UNK         0.1397 
     77 H77        27.9190  -45.1750  -53.8919 H         1 UNK         0.1363 
     78 H78        31.8933  -43.9109  -54.7793 H         1 UNK         0.1355 
     79 H79        30.7571  -45.6081  -56.1706 H         1 UNK         0.0707 
     80 H80        29.1056  -46.0572  -55.8543 H         1 UNK         0.0707 
     81 H81        30.6098  -44.4258  -58.9702 H         1 UNK         0.1034 
     82 H82        29.8498  -45.9038  -58.4371 H         1 UNK         0.1034 
     83 H83        28.4113  -43.6451  -59.8955 H         1 UNK         0.0482 
     84 H84        27.8595  -46.7789  -61.2651 H         1 UNK         0.3460 
     85 H85        28.9920  -46.6040  -62.5841 H         1 UNK         0.3460 
     86 H86        27.3600  -46.0528  -58.6611 H         1 UNK         0.2989 
     87 H87        24.0594  -45.0606  -59.3473 H         1 UNK         0.0559 
     88 H88        25.2393  -47.6122  -60.5794 H         1 UNK         0.0848 
     89 H89        24.3011  -46.4021  -61.4425 H         1 UNK         0.0848 
     90 H90        23.5431  -47.3469  -60.1732 H         1 UNK         0.0848 
     91 H91        25.2354  -47.4129  -58.1271 H         1 UNK         0.3144 
     92 H92        26.4558  -46.0147  -55.2910 H         1 UNK         0.0727 
     93 H93        24.8333  -47.0037  -53.7430 H         1 UNK         0.0790 
     94 H94        23.6751  -47.2728  -55.0461 H         1 UNK         0.0790 
     95 H95        24.0699  -45.6409  -54.5270 H         1 UNK         0.0790 
     96 H96        25.7331  -48.6642  -55.3948 H         1 UNK         0.3215 
     97 H97        26.8211  -50.3504  -57.2004 H         1 UNK         0.0863 
     98 H98        29.2318  -51.0541  -57.3957 H         1 UNK         0.0808 
     99 H99        29.7353  -49.4022  -57.0350 H         1 UNK         0.0808 
    100 H100       28.8431  -49.7525  -58.5099 H         1 UNK         0.0808 
    101 H101       28.3786  -49.5736  -54.7677 H         1 UNK         0.3118 
    102 H102       26.4580  -51.7177  -52.7451 H         1 UNK         0.0546 
    103 H103       29.4135  -52.2001  -53.4199 H         1 UNK         0.0828 
    104 H104       28.1457  -53.4178  -53.4581 H         1 UNK         0.0828 
    105 H105       28.6026  -52.6841  -51.9300 H         1 UNK         0.0828 
    106 H106       28.8176  -50.0724  -52.3529 H         1 UNK         0.3005 
    107 H107       27.4904  -47.0619  -52.7604 H         1 UNK         0.1257 
    108 H108       27.2579  -47.9254  -49.8577 H         1 UNK         0.0775 
    109 H109       26.1717  -46.8977  -50.7520 H         1 UNK         0.0775 
    110 H110       26.8823  -44.6210  -51.7850 H         1 UNK         0.0840 
    111 H111       27.6788  -43.4644  -50.7549 H         1 UNK         0.0840 
    112 H112       29.6852  -47.6062  -51.1042 H         1 UNK         0.2987 
    113 H113       31.6654  -46.6972  -53.0825 H         1 UNK         0.0785 
    114 H114       33.0982  -47.9553  -51.3952 H         1 UNK         0.0798 
    115 H115       31.7493  -49.0493  -51.1219 H         1 UNK         0.0798 
    116 H116       31.6031  -47.3361  -50.7338 H         1 UNK         0.0798 
    117 H117       32.7145  -47.8928  -54.6063 H         1 UNK         0.3079 
    118 H118       33.6968  -51.2945  -54.8889 H         1 UNK         0.0794 
    119 H119       31.7894  -50.9893  -56.4507 H         1 UNK         0.0786 
    120 H120       33.3114  -50.6960  -57.2776 H         1 UNK         0.0786 
    121 H121       32.2934  -49.3402  -56.7943 H         1 UNK         0.0786 
    122 H122       34.4020  -48.5288  -55.7262 H         1 UNK         0.3032 
    123 H123       37.2800  -48.4460  -53.6459 H         1 UNK         0.1094 
    124 H124       38.4339  -47.8260  -55.7609 H         1 UNK         0.0794 
    125 H125       38.1644  -49.5595  -55.6993 H         1 UNK         0.0794 
    126 H126       37.1380  -48.5536  -56.7118 H         1 UNK         0.0794 
    127 H127       36.0476  -46.6507  -55.5685 H         1 UNK         0.3016 
@<TRIPOS>BOND
     1    1    2 1    
     2    1   67 1    
     3    1   68 1    
     4    1   69 1    
     5    2    3 2    
     6    2    4 am   BACKBONE|DICT|INTERRES
     7    4    5 1    
     8    4   70 1    
     9    5    6 1    
    10    5   65 1    
    11    5   71 1    
    12    6    7 1    
    13    6   72 1    
    14    6   73 1    
    15    7    8 1    
    16    8    9 1    
    17    8   74 1    
    18    8   75 1    
    19    9   10 ar   
    20    9   14 ar   
    21   10   11 ar   
    22   10   76 1    
    23   11   12 ar   
    24   11   48 1    
    25   12   13 ar   
    26   12   77 1    
    27   13   14 ar   
    28   13   15 1    
    29   14   78 1    
    30   15   16 1    
    31   15   79 1    
    32   15   80 1    
    33   16   17 1    
    34   17   18 1    
    35   17   81 1    
    36   17   82 1    
    37   18   19 1    
    38   18   22 1    
    39   18   83 1    
    40   19   20 am   BACKBONE|DICT|INTERRES
    41   19   21 2    
    42   20   84 1    
    43   20   85 1    
    44   22   23 am   BACKBONE|DICT|INTERRES
    45   22   86 1    
    46   23   24 2    
    47   23   25 1    
    48   25   26 1    
    49   25   27 1    
    50   25   87 1    
    51   26   88 1    
    52   26   89 1    
    53   26   90 1    
    54   27   28 am   BACKBONE|DICT|INTERRES
    55   27   91 1    
    56   28   29 2    
    57   28   30 1    
    58   30   31 1    
    59   30   32 1    
    60   30   92 1    
    61   31   93 1    
    62   31   94 1    
    63   31   95 1    
    64   32   33 am   BACKBONE|DICT|INTERRES
    65   32   96 1    
    66   33   34 2    
    67   33   35 1    
    68   35   36 1    
    69   35   37 1    
    70   35   97 1    
    71   36   98 1    
    72   36   99 1    
    73   36  100 1    
    74   37   38 am   BACKBONE|DICT|INTERRES
    75   37  101 1    
    76   38   39 2    
    77   38   40 1    
    78   40   41 1    
    79   40   42 1    
    80   40  102 1    
    81   41  103 1    
    82   41  104 1    
    83   41  105 1    
    84   42   43 am   BACKBONE|DICT|INTERRES
    85   42  106 1    
    86   43   44 2    
    87   43   45 1    
    88   45   46 1    
    89   45   49 1    
    90   45  107 1    
    91   46   47 1    
    92   46  108 1    
    93   46  109 1    
    94   47   48 1    
    95   48  110 1    
    96   48  111 1    
    97   49   50 am   BACKBONE|DICT|INTERRES
    98   49  112 1    
    99   50   51 2    
   100   50   52 1    
   101   52   53 1    
   102   52   54 1    
   103   52  113 1    
   104   53  114 1    
   105   53  115 1    
   106   53  116 1    
   107   54   55 am   BACKBONE|DICT|INTERRES
   108   54  117 1    
   109   55   56 2    
   110   55   57 1    
   111   57   58 1    
   112   57   59 1    
   113   57  118 1    
   114   58  119 1    
   115   58  120 1    
   116   58  121 1    
   117   59   60 am   BACKBONE|DICT|INTERRES
   118   59  122 1    
   119   60   61 2    
   120   60   62 1    
   121   62   63 1    
   122   62   64 1    
   123   62  123 1    
   124   63  124 1    
   125   63  125 1    
   126   63  126 1    
   127   64   65 am   BACKBONE|DICT|INTERRES
   128   64  127 1    
   129   65   66 2    
@<TRIPOS>SUBSTRUCTURE
     1 UNK         1 GROUP             0       ****    0 ROOT    
