@<TRIPOS>MOLECULE
3R134
127   129    1
SMALL
USER_CHARGES


@<TRIPOS>ATOM
      1 CA         34.7790  -45.8492  -52.0906 C.3       0 UNK        -0.1968 
      2 C          35.0821  -45.7993  -53.5806 C.2       0 UNK         0.4852 
      3 O          35.7656  -44.8803  -54.0352 O.2       0 UNK        -0.5359 
      4 N          34.5810  -46.7791  -54.3376 N.am      1 UNK        -0.4300 
      5 CA         34.7549  -46.9000  -55.7842 C.3       1 UNK         0.0863 
      6 C6         33.7343  -46.0483  -56.5919 C.3       11 UNK        -0.0953 
      7 S7         31.9800  -46.3332  -56.1538 S.3       11 UNK        -0.2369 
      8 C8         31.2520  -44.7033  -56.5153 C.3       11 UNK         0.0226 
      9 C9         30.4529  -44.1830  -55.3335 C.ar      11 UNK        -0.0699 
     10 C10        31.1059  -43.6322  -54.2272 C.ar      11 UNK        -0.0804 
     11 C11        30.3690  -43.1709  -53.1319 C.ar      11 UNK        -0.0871 
     12 C12        28.9711  -43.2140  -53.1720 C.ar      11 UNK        -0.1008 
     13 C13        28.3096  -43.7776  -54.2651 C.ar      11 UNK        -0.0735 
     14 C14        29.0584  -44.2641  -55.3401 C.ar      11 UNK        -0.0945 
     15 C15        26.7935  -43.9125  -54.2592 C.3       11 UNK         0.0169 
     16 S16        26.0366  -43.0540  -55.6749 S.3       11 UNK        -0.2669 
     17 C17        24.8764  -44.3240  -56.2931 C.3       11 UNK        -0.0850 
     18 CA         25.5609  -45.5159  -57.0303 C.3       10 UNK         0.0855 
     19 C          24.5385  -46.5771  -57.5362 C.2       10 UNK         0.5543 
     20 N          24.7409  -47.2053  -58.6895 N.am      10 UNK        -0.7343 
     21 O          23.5572  -46.8629  -56.8547 O.2       10 UNK        -0.5027 
     22 N          26.5600  -45.1166  -58.0324 N.am      10 UNK        -0.4495 
     23 C          26.3582  -44.3487  -59.1117 C.2       10 UNK         0.4903 
     24 O          25.2937  -43.7912  -59.3797 O.2       10 UNK        -0.4860 
     25 CA         27.5473  -44.1965  -60.0809 C.3       9 UNK         0.0227 
     26 CB         28.3319  -42.9144  -59.7578 C.3       9 UNK        -0.1964 
     27 N          28.4686  -45.3388  -60.0714 N.am      9 UNK        -0.4231 
     28 C          28.1374  -46.6059  -60.3577 C.2       9 UNK         0.5014 
     29 O          27.0167  -46.9542  -60.7349 O.2       9 UNK        -0.5270 
     30 CA         29.2083  -47.6862  -60.1229 C.3       8 UNK         0.0284 
     31 CB         30.6433  -47.1392  -59.9383 C.3       8 UNK        -0.1977 
     32 N          28.8345  -48.5512  -58.9975 N.am      8 UNK        -0.4342 
     33 C          28.5905  -48.1736  -57.7331 C.2       8 UNK         0.5039 
     34 O          28.6526  -47.0078  -57.3324 O.2       8 UNK        -0.5547 
     35 CA         28.2023  -49.2881  -56.7539 C.3       7 UNK         0.0281 
     36 CB         29.2588  -50.4104  -56.7146 C.3       7 UNK        -0.1963 
     37 N          28.0196  -48.7157  -55.4193 N.am      7 UNK        -0.4444 
     38 C          27.3419  -49.2957  -54.4214 C.2       7 UNK         0.5104 
     39 O          26.8067  -50.4007  -54.5252 O.2       7 UNK        -0.5100 
     40 CA         27.2572  -48.5334  -53.0865 C.3       6 UNK         0.0396 
     41 CB         26.8323  -49.4403  -51.9111 C.3       6 UNK        -0.1801 
     42 N          28.5191  -47.8595  -52.7687 N.am      6 UNK        -0.4747 
     43 C          28.6322  -46.8042  -51.9479 C.2       6 UNK         0.5012 
     44 O          27.6685  -46.2757  -51.3899 O.2       6 UNK        -0.5003 
     45 CA         30.0598  -46.2581  -51.7226 C.3       5 UNK         0.0782 
     46 C46        30.1382  -45.1077  -50.6738 C.3       11 UNK        -0.0868 
     47 S47        31.6653  -44.1249  -50.8749 S.3       11 UNK        -0.2515 
     48 C48        31.0798  -42.7070  -51.8689 C.3       11 UNK         0.0199 
     49 N          31.0316  -47.3280  -51.4691 N.am      5 UNK        -0.4607 
     50 C          31.0641  -48.1630  -50.4228 C.2       4 UNK         0.5031 
     51 O          30.2169  -48.1822  -49.5288 O.2       4 UNK        -0.5119 
     52 CA         32.2496  -49.1504  -50.3850 C.3       4 UNK         0.0263 
     53 CB         32.3365  -49.9195  -49.0532 C.3       4 UNK        -0.1967 
     54 N          32.2004  -50.1160  -51.4861 N.am      4 UNK        -0.4237 
     55 C          32.4700  -49.8430  -52.7678 C.2       3 UNK         0.4908 
     56 O          32.8280  -48.7279  -53.1681 O.2       3 UNK        -0.5102 
     57 CA         32.2806  -50.9917  -53.7679 C.3       3 UNK         0.0241 
     58 CB         30.8343  -51.5208  -53.7660 C.3       3 UNK        -0.1971 
     59 N          32.6228  -50.4768  -55.0866 N.am      3 UNK        -0.4139 
     60 C          33.1905  -51.1456  -56.0943 C.2       2 UNK         0.5016 
     61 O          33.3604  -52.3653  -56.1034 O.2       2 UNK        -0.5319 
     62 CA         33.6773  -50.2981  -57.2885 C.3       2 UNK         0.0286 
     63 CB         32.7068  -50.4107  -58.4759 C.3       2 UNK        -0.1963 
     64 N          33.8629  -48.8787  -56.9564 N.am      2 UNK        -0.4790 
     65 C          34.8064  -48.3980  -56.1337 C.2       1 UNK         0.5024 
     66 O          35.6872  -49.0996  -55.6333 O.2       1 UNK        -0.4888 
     67 H67        34.5132  -44.8569  -51.7279 H         1 UNK         0.0892 
     68 H68        33.9504  -46.5201  -51.8681 H         1 UNK         0.0892 
     69 H69        35.6549  -46.1903  -51.5398 H         1 UNK         0.0892 
     70 H70        34.0317  -47.5210  -53.9068 H         1 UNK         0.3107 
     71 H71        35.7506  -46.5295  -56.0380 H         1 UNK         0.0773 
     72 H72        33.8630  -46.1946  -57.6658 H         1 UNK         0.0680 
     73 H73        33.9687  -44.9980  -56.4153 H         1 UNK         0.0680 
     74 H74        32.0190  -43.9741  -56.7772 H         1 UNK         0.0650 
     75 H75        30.6125  -44.7941  -57.3939 H         1 UNK         0.0650 
     76 H76        32.1870  -43.6049  -54.2012 H         1 UNK         0.1397 
     77 H77        28.3981  -42.8598  -52.3258 H         1 UNK         0.1363 
     78 H78        28.5517  -44.7068  -56.1843 H         1 UNK         0.1355 
     79 H79        26.5414  -44.9732  -54.2657 H         1 UNK         0.0707 
     80 H80        26.3680  -43.5072  -53.3400 H         1 UNK         0.0707 
     81 H81        24.2855  -44.6867  -55.4500 H         1 UNK         0.1034 
     82 H82        24.1660  -43.8307  -56.9583 H         1 UNK         0.1034 
     83 H83        26.1414  -46.0573  -56.2837 H         1 UNK         0.0482 
     84 H84        25.5377  -46.9838  -59.2750 H         1 UNK         0.3460 
     85 H85        24.0725  -47.8942  -58.9954 H         1 UNK         0.3460 
     86 H86        27.4580  -45.5813  -57.9303 H         1 UNK         0.2989 
     87 H87        27.1411  -44.1088  -61.0906 H         1 UNK         0.0559 
     88 H88        28.7755  -42.9528  -58.7617 H         1 UNK         0.0848 
     89 H89        27.6788  -42.0409  -59.7874 H         1 UNK         0.0848 
     90 H90        29.1317  -42.7426  -60.4782 H         1 UNK         0.0848 
     91 H91        29.4059  -45.1636  -59.7410 H         1 UNK         0.3144 
     92 H92        29.2079  -48.3128  -61.0160 H         1 UNK         0.0727 
     93 H93        31.3648  -47.9545  -59.8931 H         1 UNK         0.0790 
     94 H94        30.7544  -46.5594  -59.0227 H         1 UNK         0.0790 
     95 H95        30.9368  -46.5048  -60.7757 H         1 UNK         0.0790 
     96 H96        28.7020  -49.5245  -59.2336 H         1 UNK         0.3215 
     97 H97        27.2489  -49.6983  -57.0940 H         1 UNK         0.0863 
     98 H98        28.9541  -51.2193  -56.0515 H         1 UNK         0.0808 
     99 H99        30.2186  -50.0317  -56.3668 H         1 UNK         0.0808 
    100 H100       29.4163  -50.8597  -57.6951 H         1 UNK         0.0808 
    101 H101       28.3767  -47.7717  -55.3261 H         1 UNK         0.3118 
    102 H102       26.4849  -47.7744  -53.2277 H         1 UNK         0.0546 
    103 H103       27.5648  -50.2277  -51.7303 H         1 UNK         0.0828 
    104 H104       25.8741  -49.9219  -52.1096 H         1 UNK         0.0828 
    105 H105       26.7165  -48.8742  -50.9870 H         1 UNK         0.0828 
    106 H106       29.3526  -48.2467  -53.1892 H         1 UNK         0.3005 
    107 H107       30.3353  -45.8457  -52.6928 H         1 UNK         0.1257 
    108 H108       30.1065  -45.5033  -49.6581 H         1 UNK         0.0775 
    109 H109       29.2861  -44.4316  -50.7412 H         1 UNK         0.0775 
    110 H110       30.4196  -42.0877  -51.2596 H         1 UNK         0.0840 
    111 H111       31.9315  -42.0787  -52.1334 H         1 UNK         0.0840 
    112 H112       31.7447  -47.4584  -52.1798 H         1 UNK         0.2987 
    113 H113       33.1637  -48.5605  -50.4823 H         1 UNK         0.0785 
    114 H114       33.2218  -50.5547  -49.0185 H         1 UNK         0.0798 
    115 H115       31.4624  -50.5518  -48.8921 H         1 UNK         0.0798 
    116 H116       32.4013  -49.2316  -48.2089 H         1 UNK         0.0798 
    117 H117       31.8906  -51.0468  -51.2461 H         1 UNK         0.3079 
    118 H118       32.9714  -51.7941  -53.5003 H         1 UNK         0.0794 
    119 H119       30.5906  -52.0116  -52.8235 H         1 UNK         0.0786 
    120 H120       30.6824  -52.2575  -54.5550 H         1 UNK         0.0786 
    121 H121       30.1111  -50.7181  -53.9110 H         1 UNK         0.0786 
    122 H122       32.5919  -49.4668  -55.1450 H         1 UNK         0.3032 
    123 H123       34.6434  -50.7063  -57.5942 H         1 UNK         0.1094 
    124 H124       33.1181  -49.9364  -59.3670 H         1 UNK         0.0794 
    125 H125       32.5128  -51.4544  -58.7276 H         1 UNK         0.0794 
    126 H126       31.7470  -49.9413  -58.2620 H         1 UNK         0.0794 
    127 H127       33.1651  -48.2320  -57.3005 H         1 UNK         0.3016 
@<TRIPOS>BOND
     1    1    2 1    
     2    1   67 1    
     3    1   68 1    
     4    1   69 1    
     5    2    3 2    
     6    2    4 am   BACKBONE|DICT|INTERRES
     7    4    5 1    
     8    4   70 1    
     9    5    6 1    
    10    5   65 1    
    11    5   71 1    
    12    6    7 1    
    13    6   72 1    
    14    6   73 1    
    15    7    8 1    
    16    8    9 1    
    17    8   74 1    
    18    8   75 1    
    19    9   10 ar   
    20    9   14 ar   
    21   10   11 ar   
    22   10   76 1    
    23   11   12 ar   
    24   11   48 1    
    25   12   13 ar   
    26   12   77 1    
    27   13   14 ar   
    28   13   15 1    
    29   14   78 1    
    30   15   16 1    
    31   15   79 1    
    32   15   80 1    
    33   16   17 1    
    34   17   18 1    
    35   17   81 1    
    36   17   82 1    
    37   18   19 1    
    38   18   22 1    
    39   18   83 1    
    40   19   20 am   BACKBONE|DICT|INTERRES
    41   19   21 2    
    42   20   84 1    
    43   20   85 1    
    44   22   23 am   BACKBONE|DICT|INTERRES
    45   22   86 1    
    46   23   24 2    
    47   23   25 1    
    48   25   26 1    
    49   25   27 1    
    50   25   87 1    
    51   26   88 1    
    52   26   89 1    
    53   26   90 1    
    54   27   28 am   BACKBONE|DICT|INTERRES
    55   27   91 1    
    56   28   29 2    
    57   28   30 1    
    58   30   31 1    
    59   30   32 1    
    60   30   92 1    
    61   31   93 1    
    62   31   94 1    
    63   31   95 1    
    64   32   33 am   BACKBONE|DICT|INTERRES
    65   32   96 1    
    66   33   34 2    
    67   33   35 1    
    68   35   36 1    
    69   35   37 1    
    70   35   97 1    
    71   36   98 1    
    72   36   99 1    
    73   36  100 1    
    74   37   38 am   BACKBONE|DICT|INTERRES
    75   37  101 1    
    76   38   39 2    
    77   38   40 1    
    78   40   41 1    
    79   40   42 1    
    80   40  102 1    
    81   41  103 1    
    82   41  104 1    
    83   41  105 1    
    84   42   43 am   BACKBONE|DICT|INTERRES
    85   42  106 1    
    86   43   44 2    
    87   43   45 1    
    88   45   46 1    
    89   45   49 1    
    90   45  107 1    
    91   46   47 1    
    92   46  108 1    
    93   46  109 1    
    94   47   48 1    
    95   48  110 1    
    96   48  111 1    
    97   49   50 am   BACKBONE|DICT|INTERRES
    98   49  112 1    
    99   50   51 2    
   100   50   52 1    
   101   52   53 1    
   102   52   54 1    
   103   52  113 1    
   104   53  114 1    
   105   53  115 1    
   106   53  116 1    
   107   54   55 am   BACKBONE|DICT|INTERRES
   108   54  117 1    
   109   55   56 2    
   110   55   57 1    
   111   57   58 1    
   112   57   59 1    
   113   57  118 1    
   114   58  119 1    
   115   58  120 1    
   116   58  121 1    
   117   59   60 am   BACKBONE|DICT|INTERRES
   118   59  122 1    
   119   60   61 2    
   120   60   62 1    
   121   62   63 1    
   122   62   64 1    
   123   62  123 1    
   124   63  124 1    
   125   63  125 1    
   126   63  126 1    
   127   64   65 am   BACKBONE|DICT|INTERRES
   128   64  127 1    
   129   65   66 2    
@<TRIPOS>SUBSTRUCTURE
     1 UNK         1 GROUP             0       ****    0 ROOT    
