@<TRIPOS>MOLECULE
3R134
127   129    1
SMALL
USER_CHARGES


@<TRIPOS>ATOM
      1 CA         27.6278  -44.7690  -52.0924 C.3       0 UNK        -0.1968 
      2 C          28.8264  -45.1602  -51.2395 C.2       0 UNK         0.4852 
      3 O          28.6604  -45.5048  -50.0680 O.2       0 UNK        -0.5359 
      4 N          30.0307  -45.0987  -51.8193 N.am      1 UNK        -0.4300 
      5 CA         31.2986  -45.4977  -51.1990 C.3       1 UNK         0.0863 
      6 C6         32.5139  -44.9731  -52.0069 C.3       11 UNK        -0.0953 
      7 S7         32.4935  -43.1581  -52.1754 S.3       11 UNK        -0.2369 
      8 C8         33.7358  -42.8947  -53.4831 C.3       11 UNK         0.0226 
      9 C9         33.3118  -43.4278  -54.8486 C.ar      11 UNK        -0.0699 
     10 C10        34.1898  -44.2258  -55.5884 C.ar      11 UNK        -0.0804 
     11 C11        33.8410  -44.6776  -56.8650 C.ar      11 UNK        -0.0871 
     12 C12        32.5844  -44.3574  -57.3885 C.ar      11 UNK        -0.1008 
     13 C13        31.6934  -43.5614  -56.6593 C.ar      11 UNK        -0.0735 
     14 C14        32.0718  -43.0864  -55.3988 C.ar      11 UNK        -0.0945 
     15 C15        30.3413  -43.1816  -57.2499 C.3       11 UNK         0.0169 
     16 S16        28.9523  -43.6686  -56.1769 S.3       11 UNK        -0.2669 
     17 C17        27.5466  -43.2339  -57.2555 C.3       11 UNK        -0.0850 
     18 CA         26.1776  -43.2831  -56.5264 C.3       10 UNK         0.0855 
     19 C          25.0334  -42.8208  -57.4791 C.2       10 UNK         0.5543 
     20 N          24.0636  -43.6600  -57.8270 N.am      10 UNK        -0.7343 
     21 O          25.0282  -41.6709  -57.9112 O.2       10 UNK        -0.5027 
     22 N          25.9543  -44.5897  -55.8913 N.am      10 UNK        -0.4495 
     23 C          25.0275  -44.8582  -54.9638 C.2       10 UNK         0.4903 
     24 O          24.3021  -44.0058  -54.4494 O.2       10 UNK        -0.4860 
     25 CA         24.8914  -46.3390  -54.5613 C.3       9 UNK         0.0227 
     26 CB         23.5293  -46.6673  -53.9141 C.3       9 UNK        -0.1964 
     27 N          25.1896  -47.2552  -55.6707 N.am      9 UNK        -0.4231 
     28 C          24.5316  -47.3742  -56.8366 C.2       9 UNK         0.5014 
     29 O          23.5392  -46.7027  -57.1233 O.2       9 UNK        -0.5270 
     30 CA         25.0885  -48.3579  -57.8910 C.3       8 UNK         0.0284 
     31 CB         25.3586  -47.6306  -59.2206 C.3       8 UNK        -0.1977 
     32 N          26.3188  -49.0387  -57.4776 N.am      8 UNK        -0.4342 
     33 C          26.4005  -50.0432  -56.5947 C.2       8 UNK         0.5039 
     34 O          25.4185  -50.6050  -56.1094 O.2       8 UNK        -0.5547 
     35 CA         27.8131  -50.4617  -56.1380 C.3       7 UNK         0.0281 
     36 CB         28.2299  -51.7772  -56.8139 C.3       7 UNK        -0.1963 
     37 N          28.8579  -49.4490  -56.3557 N.am      7 UNK        -0.4444 
     38 C          28.8727  -48.2161  -55.8218 C.2       7 UNK         0.5104 
     39 O          27.9666  -47.7821  -55.1097 O.2       7 UNK        -0.5100 
     40 CA         30.0582  -47.2966  -56.1609 C.3       6 UNK         0.0396 
     41 CB         30.6347  -46.6483  -54.8978 C.3       6 UNK        -0.1801 
     42 N          31.1375  -48.0069  -56.8384 N.am      6 UNK        -0.4747 
     43 C          31.4370  -47.9115  -58.1400 C.2       6 UNK         0.5012 
     44 O          30.8025  -47.2228  -58.9396 O.2       6 UNK        -0.5003 
     45 CA         32.6433  -48.7325  -58.6452 C.3       5 UNK         0.0782 
     46 C46        33.8657  -47.8250  -58.9320 C.3       11 UNK        -0.0868 
     47 S47        34.7370  -47.2504  -57.4277 S.3       11 UNK        -0.2515 
     48 C48        34.8538  -45.4545  -57.6946 C.3       11 UNK         0.0199 
     49 N          32.9966  -49.8492  -57.7608 N.am      5 UNK        -0.4607 
     50 C          32.2425  -50.9334  -57.5447 C.2       4 UNK         0.5031 
     51 O          31.1826  -51.1505  -58.1300 O.2       4 UNK        -0.5119 
     52 CA         32.7260  -51.9121  -56.4597 C.3       4 UNK         0.0263 
     53 CB         33.5755  -53.0292  -57.0860 C.3       4 UNK        -0.1967 
     54 N          33.4822  -51.2713  -55.3744 N.am      4 UNK        -0.4237 
     55 C          32.9789  -50.3640  -54.5256 C.2       3 UNK         0.4908 
     56 O          31.8262  -49.9323  -54.5874 O.2       3 UNK        -0.5102 
     57 CA         33.9331  -49.8157  -53.4605 C.3       3 UNK         0.0241 
     58 CB         34.7192  -48.6080  -54.0019 C.3       3 UNK        -0.1971 
     59 N          33.1603  -49.4102  -52.2894 N.am      3 UNK        -0.4139 
     60 C          33.6124  -49.3886  -51.0307 C.2       2 UNK         0.5016 
     61 O          34.7614  -49.7051  -50.7147 O.2       2 UNK        -0.5319 
     62 CA         32.6261  -48.8945  -49.9530 C.3       2 UNK         0.0286 
     63 CB         33.1677  -49.0784  -48.5224 C.3       2 UNK        -0.1963 
     64 N          32.3000  -47.4800  -50.1562 N.am      2 UNK        -0.4790 
     65 C          31.3902  -47.0298  -51.0289 C.2       1 UNK         0.5024 
     66 O          30.6885  -47.7814  -51.7099 O.2       1 UNK        -0.4888 
     67 H67        27.2599  -43.7867  -51.7976 H         1 UNK         0.0892 
     68 H68        27.8757  -44.7379  -53.1538 H         1 UNK         0.0892 
     69 H69        26.8220  -45.4891  -51.9556 H         1 UNK         0.0892 
     70 H70        30.1036  -44.7883  -52.7763 H         1 UNK         0.3107 
     71 H71        31.3308  -45.0549  -50.2010 H         1 UNK         0.0773 
     72 H72        32.5382  -45.4236  -53.0004 H         1 UNK         0.0680 
     73 H73        33.4526  -45.2491  -51.5231 H         1 UNK         0.0680 
     74 H74        34.6767  -43.3453  -53.1635 H         1 UNK         0.0650 
     75 H75        33.9223  -41.8239  -53.5733 H         1 UNK         0.0650 
     76 H76        35.1612  -44.4739  -55.1827 H         1 UNK         0.1397 
     77 H77        32.3093  -44.7124  -58.3725 H         1 UNK         0.1363 
     78 H78        31.3938  -42.4545  -54.8416 H         1 UNK         0.1355 
     79 H79        30.3134  -42.1028  -57.4095 H         1 UNK         0.0707 
     80 H80        30.2084  -43.6472  -58.2279 H         1 UNK         0.0707 
     81 H81        27.7227  -42.2332  -57.6556 H         1 UNK         0.1034 
     82 H82        27.5468  -43.9098  -58.1129 H         1 UNK         0.1034 
     83 H83        26.2108  -42.5447  -55.7229 H         1 UNK         0.0482 
     84 H84        24.0342  -44.6057  -57.4682 H         1 UNK         0.3460 
     85 H85        23.3341  -43.3370  -58.4422 H         1 UNK         0.3460 
     86 H86        26.5239  -45.3492  -56.2317 H         1 UNK         0.2989 
     87 H87        25.6624  -46.5217  -53.8125 H         1 UNK         0.0559 
     88 H88        22.6974  -46.4429  -54.5825 H         1 UNK         0.0848 
     89 H89        23.3789  -46.0854  -53.0040 H         1 UNK         0.0848 
     90 H90        23.4644  -47.7198  -53.6387 H         1 UNK         0.0848 
     91 H91        26.0467  -47.7878  -55.5508 H         1 UNK         0.3144 
     92 H92        24.3179  -49.1121  -58.0634 H         1 UNK         0.0727 
     93 H93        26.1056  -46.8437  -59.1071 H         1 UNK         0.0790 
     94 H94        24.4509  -47.1633  -59.6053 H         1 UNK         0.0790 
     95 H95        25.7105  -48.3212  -59.9873 H         1 UNK         0.0790 
     96 H96        27.1852  -48.6561  -57.8276 H         1 UNK         0.3215 
     97 H97        27.7564  -50.6369  -55.0615 H         1 UNK         0.0863 
     98 H98        29.1693  -52.1512  -56.4066 H         1 UNK         0.0808 
     99 H99        28.3554  -51.6556  -57.8906 H         1 UNK         0.0808 
    100 H100       27.4801  -52.5542  -56.6576 H         1 UNK         0.0808 
    101 H101       29.6446  -49.7265  -56.9280 H         1 UNK         0.3118 
    102 H102       29.6701  -46.5021  -56.8001 H         1 UNK         0.0546 
    103 H103       31.4466  -45.9647  -55.1403 H         1 UNK         0.0828 
    104 H104       31.0250  -47.3962  -54.2103 H         1 UNK         0.0828 
    105 H105       29.8702  -46.0772  -54.3739 H         1 UNK         0.0828 
    106 H106       31.6816  -48.6309  -56.2528 H         1 UNK         0.3005 
    107 H107       32.3263  -49.1656  -59.5970 H         1 UNK         0.1257 
    108 H108       34.5894  -48.3802  -59.5305 H         1 UNK         0.0775 
    109 H109       33.5719  -46.9767  -59.5528 H         1 UNK         0.0775 
    110 H110       35.8625  -45.1372  -57.4255 H         1 UNK         0.0840 
    111 H111       34.7478  -45.2095  -58.7521 H         1 UNK         0.0840 
    112 H112       33.8513  -49.7362  -57.2350 H         1 UNK         0.2987 
    113 H113       31.8369  -52.3669  -56.0172 H         1 UNK         0.0785 
    114 H114       34.4961  -52.6410  -57.5238 H         1 UNK         0.0798 
    115 H115       33.0265  -53.5378  -57.8800 H         1 UNK         0.0798 
    116 H116       33.8456  -53.7846  -56.3478 H         1 UNK         0.0798 
    117 H117       34.4435  -51.5615  -55.2627 H         1 UNK         0.3079 
    118 H118       34.6284  -50.6091  -53.1776 H         1 UNK         0.0794 
    119 H119       34.0539  -47.8014  -54.3148 H         1 UNK         0.0786 
    120 H120       35.3245  -48.8880  -54.8646 H         1 UNK         0.0786 
    121 H121       35.3988  -48.2060  -53.2504 H         1 UNK         0.0786 
    122 H122       32.1971  -49.1468  -52.4777 H         1 UNK         0.3032 
    123 H123       31.7178  -49.4955  -50.0420 H         1 UNK         0.1094 
    124 H124       32.4312  -48.7748  -47.7781 H         1 UNK         0.0794 
    125 H125       33.4092  -50.1243  -48.3284 H         1 UNK         0.0794 
    126 H126       34.0750  -48.4971  -48.3530 H         1 UNK         0.0794 
    127 H127       32.8685  -46.8127  -49.6537 H         1 UNK         0.3016 
@<TRIPOS>BOND
     1    1    2 1    
     2    1   67 1    
     3    1   68 1    
     4    1   69 1    
     5    2    3 2    
     6    2    4 am   BACKBONE|DICT|INTERRES
     7    4    5 1    
     8    4   70 1    
     9    5    6 1    
    10    5   65 1    
    11    5   71 1    
    12    6    7 1    
    13    6   72 1    
    14    6   73 1    
    15    7    8 1    
    16    8    9 1    
    17    8   74 1    
    18    8   75 1    
    19    9   10 ar   
    20    9   14 ar   
    21   10   11 ar   
    22   10   76 1    
    23   11   12 ar   
    24   11   48 1    
    25   12   13 ar   
    26   12   77 1    
    27   13   14 ar   
    28   13   15 1    
    29   14   78 1    
    30   15   16 1    
    31   15   79 1    
    32   15   80 1    
    33   16   17 1    
    34   17   18 1    
    35   17   81 1    
    36   17   82 1    
    37   18   19 1    
    38   18   22 1    
    39   18   83 1    
    40   19   20 am   BACKBONE|DICT|INTERRES
    41   19   21 2    
    42   20   84 1    
    43   20   85 1    
    44   22   23 am   BACKBONE|DICT|INTERRES
    45   22   86 1    
    46   23   24 2    
    47   23   25 1    
    48   25   26 1    
    49   25   27 1    
    50   25   87 1    
    51   26   88 1    
    52   26   89 1    
    53   26   90 1    
    54   27   28 am   BACKBONE|DICT|INTERRES
    55   27   91 1    
    56   28   29 2    
    57   28   30 1    
    58   30   31 1    
    59   30   32 1    
    60   30   92 1    
    61   31   93 1    
    62   31   94 1    
    63   31   95 1    
    64   32   33 am   BACKBONE|DICT|INTERRES
    65   32   96 1    
    66   33   34 2    
    67   33   35 1    
    68   35   36 1    
    69   35   37 1    
    70   35   97 1    
    71   36   98 1    
    72   36   99 1    
    73   36  100 1    
    74   37   38 am   BACKBONE|DICT|INTERRES
    75   37  101 1    
    76   38   39 2    
    77   38   40 1    
    78   40   41 1    
    79   40   42 1    
    80   40  102 1    
    81   41  103 1    
    82   41  104 1    
    83   41  105 1    
    84   42   43 am   BACKBONE|DICT|INTERRES
    85   42  106 1    
    86   43   44 2    
    87   43   45 1    
    88   45   46 1    
    89   45   49 1    
    90   45  107 1    
    91   46   47 1    
    92   46  108 1    
    93   46  109 1    
    94   47   48 1    
    95   48  110 1    
    96   48  111 1    
    97   49   50 am   BACKBONE|DICT|INTERRES
    98   49  112 1    
    99   50   51 2    
   100   50   52 1    
   101   52   53 1    
   102   52   54 1    
   103   52  113 1    
   104   53  114 1    
   105   53  115 1    
   106   53  116 1    
   107   54   55 am   BACKBONE|DICT|INTERRES
   108   54  117 1    
   109   55   56 2    
   110   55   57 1    
   111   57   58 1    
   112   57   59 1    
   113   57  118 1    
   114   58  119 1    
   115   58  120 1    
   116   58  121 1    
   117   59   60 am   BACKBONE|DICT|INTERRES
   118   59  122 1    
   119   60   61 2    
   120   60   62 1    
   121   62   63 1    
   122   62   64 1    
   123   62  123 1    
   124   63  124 1    
   125   63  125 1    
   126   63  126 1    
   127   64   65 am   BACKBONE|DICT|INTERRES
   128   64  127 1    
   129   65   66 2    
@<TRIPOS>SUBSTRUCTURE
     1 UNK         1 GROUP             0       ****    0 ROOT    
