@<TRIPOS>MOLECULE
3R134
127   129    1
SMALL
USER_CHARGES


@<TRIPOS>ATOM
      1 CA         30.4892  -44.7744  -50.7031 C.3       0 UNK        -0.1968 
      2 C          31.9897  -44.9730  -50.5680 C.2       0 UNK         0.4852 
      3 O          32.4414  -45.6079  -49.6139 O.2       0 UNK        -0.5359 
      4 N          32.7647  -44.4180  -51.5098 N.am      1 UNK        -0.4300 
      5 CA         34.2344  -44.4289  -51.4911 C.3       1 UNK         0.0863 
      6 C6         34.8538  -43.3389  -52.4034 C.3       11 UNK        -0.0953 
      7 S7         34.1206  -41.6875  -52.1097 S.3       11 UNK        -0.2369 
      8 C8         33.5138  -41.1867  -53.7569 C.3       11 UNK         0.0226 
      9 C9         32.6513  -42.2470  -54.4310 C.ar      11 UNK        -0.0699 
     10 C10        33.1434  -42.9341  -55.5437 C.ar      11 UNK        -0.0804 
     11 C11        32.3878  -43.9248  -56.1757 C.ar      11 UNK        -0.0871 
     12 C12        31.1146  -44.2264  -55.6698 C.ar      11 UNK        -0.1008 
     13 C13        30.6018  -43.5358  -54.5644 C.ar      11 UNK        -0.0735 
     14 C14        31.3712  -42.5404  -53.9539 C.ar      11 UNK        -0.0945 
     15 C15        29.2341  -43.9003  -54.0062 C.3       11 UNK         0.0169 
     16 S16        27.8693  -43.3282  -55.0656 S.3       11 UNK        -0.2669 
     17 C17        26.4887  -44.3546  -54.4352 C.3       11 UNK        -0.0850 
     18 CA         25.4215  -44.8224  -55.4795 C.3       10 UNK         0.0855 
     19 C          24.2069  -43.8575  -55.6579 C.2       10 UNK         0.5543 
     20 N          23.3993  -44.0215  -56.6986 N.am      10 UNK        -0.7343 
     21 O          23.9615  -42.9818  -54.8313 O.2       10 UNK        -0.5027 
     22 N          26.0022  -45.4029  -56.7098 N.am      10 UNK        -0.4495 
     23 C          26.3706  -44.7416  -57.8201 C.2       10 UNK         0.4903 
     24 O          26.1906  -43.5373  -58.0033 O.2       10 UNK        -0.4860 
     25 CA         27.0934  -45.5305  -58.9227 C.3       9 UNK         0.0227 
     26 CB         28.5814  -45.1459  -58.9425 C.3       9 UNK        -0.1964 
     27 N          26.9889  -46.9853  -58.7981 N.am      9 UNK        -0.4231 
     28 C          25.9773  -47.7209  -59.2767 C.2       9 UNK         0.5014 
     29 O          24.9470  -47.2390  -59.7490 O.2       9 UNK        -0.5270 
     30 CA         26.1519  -49.2471  -59.2577 C.3       8 UNK         0.0284 
     31 CB         27.1117  -49.6918  -60.3747 C.3       8 UNK        -0.1977 
     32 N          26.6606  -49.7224  -57.9703 N.am      8 UNK        -0.4342 
     33 C          25.9958  -50.5371  -57.1389 C.2       8 UNK         0.5039 
     34 O          24.8851  -51.0101  -57.3855 O.2       8 UNK        -0.5547 
     35 CA         26.6697  -50.8995  -55.7992 C.3       7 UNK         0.0281 
     36 CB         27.3519  -52.2736  -55.9025 C.3       7 UNK        -0.1963 
     37 N          27.6486  -49.9205  -55.3201 N.am      7 UNK        -0.4444 
     38 C          27.3990  -48.6277  -55.0733 C.2       7 UNK         0.5104 
     39 O          26.2896  -48.1047  -55.1743 O.2       7 UNK        -0.5100 
     40 CA         28.6046  -47.7484  -54.7131 C.3       6 UNK         0.0396 
     41 CB         28.8208  -47.7481  -53.1931 C.3       6 UNK        -0.1801 
     42 N          29.8569  -48.1133  -55.3817 N.am      6 UNK        -0.4747 
     43 C          30.0382  -48.2288  -56.7065 C.2       6 UNK         0.5012 
     44 O          29.1309  -48.1475  -57.5352 O.2       6 UNK        -0.5003 
     45 CA         31.4699  -48.5310  -57.1780 C.3       5 UNK         0.0782 
     46 C46        32.4187  -47.3235  -56.9838 C.3       11 UNK        -0.0868 
     47 S47        32.0598  -45.9727  -58.1512 S.3       11 UNK        -0.2515 
     48 C48        33.0045  -44.6030  -57.4038 C.3       11 UNK         0.0199 
     49 N          31.9618  -49.7268  -56.4983 N.am      5 UNK        -0.4607 
     50 C          31.5961  -50.9766  -56.8157 C.2       4 UNK         0.5031 
     51 O          30.9148  -51.2631  -57.7997 O.2       4 UNK        -0.5119 
     52 CA         32.0483  -52.0976  -55.8638 C.3       4 UNK         0.0263 
     53 CB         33.3700  -52.7144  -56.3487 C.3       4 UNK        -0.1967 
     54 N          32.2007  -51.6500  -54.4765 N.am      4 UNK        -0.4237 
     55 C          31.1957  -51.2273  -53.6953 C.2       3 UNK         0.4908 
     56 O          30.0158  -51.1976  -54.0461 O.2       3 UNK        -0.5102 
     57 CA         31.5865  -50.7039  -52.3034 C.3       3 UNK         0.0241 
     58 CB         31.7020  -51.8641  -51.3019 C.3       3 UNK        -0.1971 
     59 N          32.8289  -49.9209  -52.3013 N.am      3 UNK        -0.4139 
     60 C          32.9910  -48.7605  -52.9513 C.2       2 UNK         0.5016 
     61 O          32.1281  -48.2470  -53.6678 O.2       2 UNK        -0.5319 
     62 CA         34.3401  -48.0544  -52.8034 C.3       2 UNK         0.0286 
     63 CB         35.1859  -48.2008  -54.0800 C.3       2 UNK        -0.1963 
     64 N          34.0610  -46.6473  -52.5447 N.am      2 UNK        -0.4790 
     65 C          34.8185  -45.8220  -51.8115 C.2       1 UNK         0.5024 
     66 O          35.9271  -46.1285  -51.3701 O.2       1 UNK        -0.4888 
     67 H67        29.9780  -45.0624  -49.7847 H         1 UNK         0.0892 
     68 H68        30.0959  -45.3828  -51.5141 H         1 UNK         0.0892 
     69 H69        30.2556  -43.7287  -50.9010 H         1 UNK         0.0892 
     70 H70        32.3469  -43.8988  -52.2698 H         1 UNK         0.3107 
     71 H71        34.5398  -44.1976  -50.4680 H         1 UNK         0.0773 
     72 H72        34.7609  -43.6155  -53.4531 H         1 UNK         0.0680 
     73 H73        35.9261  -43.2618  -52.2146 H         1 UNK         0.0680 
     74 H74        32.9361  -40.2672  -53.6532 H         1 UNK         0.0650 
     75 H75        34.3730  -40.9355  -54.3807 H         1 UNK         0.0650 
     76 H76        34.1288  -42.6967  -55.9217 H         1 UNK         0.1397 
     77 H77        30.5067  -44.9917  -56.1294 H         1 UNK         0.1363 
     78 H78        30.9834  -42.0020  -53.0994 H         1 UNK         0.1355 
     79 H79        29.1936  -44.9800  -53.8861 H         1 UNK         0.0707 
     80 H80        29.0942  -43.4759  -53.0117 H         1 UNK         0.0707 
     81 H81        26.0232  -43.8256  -53.6019 H         1 UNK         0.1034 
     82 H82        26.9111  -45.2480  -53.9769 H         1 UNK         0.1034 
     83 H83        24.9403  -45.6811  -55.0096 H         1 UNK         0.0482 
     84 H84        23.5943  -44.7324  -57.3856 H         1 UNK         0.3460 
     85 H85        22.6070  -43.4094  -56.8127 H         1 UNK         0.3460 
     86 H86        26.1676  -46.3998  -56.6696 H         1 UNK         0.2989 
     87 H87        26.6583  -45.2297  -59.8783 H         1 UNK         0.0559 
     88 H88        29.0646  -45.3815  -57.9944 H         1 UNK         0.0848 
     89 H89        28.7098  -44.0760  -59.1121 H         1 UNK         0.0848 
     90 H90        29.1213  -45.6667  -59.7334 H         1 UNK         0.0848 
     91 H91        27.8031  -47.4549  -58.4019 H         1 UNK         0.3144 
     92 H92        25.1733  -49.6837  -59.4677 H         1 UNK         0.0727 
     93 H93        26.7700  -49.3382  -61.3485 H         1 UNK         0.0790 
     94 H94        27.1753  -50.7787  -60.4289 H         1 UNK         0.0790 
     95 H95        28.1209  -49.3066  -60.2212 H         1 UNK         0.0790 
     96 H96        27.5647  -49.3654  -57.6767 H         1 UNK         0.3215 
     97 H97        25.8793  -50.9623  -55.0485 H         1 UNK         0.0863 
     98 H98        27.7329  -52.6011  -54.9350 H         1 UNK         0.0808 
     99 H99        28.1886  -52.2549  -56.6026 H         1 UNK         0.0808 
    100 H100       26.6516  -53.0353  -56.2483 H         1 UNK         0.0808 
    101 H101       28.5865  -50.2659  -55.1357 H         1 UNK         0.3118 
    102 H102       28.3700  -46.7363  -55.0420 H         1 UNK         0.0546 
    103 H103       27.9616  -47.3212  -52.6745 H         1 UNK         0.0828 
    104 H104       29.6980  -47.1666  -52.9149 H         1 UNK         0.0828 
    105 H105       28.9624  -48.7591  -52.8108 H         1 UNK         0.0828 
    106 H106       30.6704  -48.2142  -54.7759 H         1 UNK         0.3005 
    107 H107       31.4204  -48.7503  -58.2477 H         1 UNK         0.1257 
    108 H108       33.4505  -47.6330  -57.1567 H         1 UNK         0.0775 
    109 H109       32.3835  -46.9440  -55.9612 H         1 UNK         0.0775 
    110 H110       34.0021  -44.9667  -57.1524 H         1 UNK         0.0840 
    111 H111       33.1432  -43.8426  -58.1736 H         1 UNK         0.0840 
    112 H112       32.4806  -49.5756  -55.6455 H         1 UNK         0.2987 
    113 H113       31.2787  -52.8725  -55.8825 H         1 UNK         0.0785 
    114 H114       33.2769  -53.0790  -57.3728 H         1 UNK         0.0798 
    115 H115       33.6627  -53.5635  -55.7307 H         1 UNK         0.0798 
    116 H116       34.1851  -51.9896  -56.3340 H         1 UNK         0.0798 
    117 H117       33.1368  -51.6437  -54.0984 H         1 UNK         0.3079 
    118 H118       30.7840  -50.0461  -51.9649 H         1 UNK         0.0794 
    119 H119       32.5131  -52.5459  -51.5606 H         1 UNK         0.0786 
    120 H120       30.7810  -52.4486  -51.2751 H         1 UNK         0.0786 
    121 H121       31.8796  -51.4986  -50.2903 H         1 UNK         0.0786 
    122 H122       33.5865  -50.2767  -51.7356 H         1 UNK         0.3032 
    123 H123       34.8795  -48.4840  -51.9559 H         1 UNK         0.1094 
    124 H124       35.3724  -49.2505  -54.3102 H         1 UNK         0.0794 
    125 H125       34.6914  -47.7565  -54.9442 H         1 UNK         0.0794 
    126 H126       36.1561  -47.7166  -53.9678 H         1 UNK         0.0794 
    127 H127       33.1476  -46.3382  -52.8526 H         1 UNK         0.3016 
@<TRIPOS>BOND
     1    1    2 1    
     2    1   67 1    
     3    1   68 1    
     4    1   69 1    
     5    2    3 2    
     6    2    4 am   BACKBONE|DICT|INTERRES
     7    4    5 1    
     8    4   70 1    
     9    5    6 1    
    10    5   65 1    
    11    5   71 1    
    12    6    7 1    
    13    6   72 1    
    14    6   73 1    
    15    7    8 1    
    16    8    9 1    
    17    8   74 1    
    18    8   75 1    
    19    9   10 ar   
    20    9   14 ar   
    21   10   11 ar   
    22   10   76 1    
    23   11   12 ar   
    24   11   48 1    
    25   12   13 ar   
    26   12   77 1    
    27   13   14 ar   
    28   13   15 1    
    29   14   78 1    
    30   15   16 1    
    31   15   79 1    
    32   15   80 1    
    33   16   17 1    
    34   17   18 1    
    35   17   81 1    
    36   17   82 1    
    37   18   19 1    
    38   18   22 1    
    39   18   83 1    
    40   19   20 am   BACKBONE|DICT|INTERRES
    41   19   21 2    
    42   20   84 1    
    43   20   85 1    
    44   22   23 am   BACKBONE|DICT|INTERRES
    45   22   86 1    
    46   23   24 2    
    47   23   25 1    
    48   25   26 1    
    49   25   27 1    
    50   25   87 1    
    51   26   88 1    
    52   26   89 1    
    53   26   90 1    
    54   27   28 am   BACKBONE|DICT|INTERRES
    55   27   91 1    
    56   28   29 2    
    57   28   30 1    
    58   30   31 1    
    59   30   32 1    
    60   30   92 1    
    61   31   93 1    
    62   31   94 1    
    63   31   95 1    
    64   32   33 am   BACKBONE|DICT|INTERRES
    65   32   96 1    
    66   33   34 2    
    67   33   35 1    
    68   35   36 1    
    69   35   37 1    
    70   35   97 1    
    71   36   98 1    
    72   36   99 1    
    73   36  100 1    
    74   37   38 am   BACKBONE|DICT|INTERRES
    75   37  101 1    
    76   38   39 2    
    77   38   40 1    
    78   40   41 1    
    79   40   42 1    
    80   40  102 1    
    81   41  103 1    
    82   41  104 1    
    83   41  105 1    
    84   42   43 am   BACKBONE|DICT|INTERRES
    85   42  106 1    
    86   43   44 2    
    87   43   45 1    
    88   45   46 1    
    89   45   49 1    
    90   45  107 1    
    91   46   47 1    
    92   46  108 1    
    93   46  109 1    
    94   47   48 1    
    95   48  110 1    
    96   48  111 1    
    97   49   50 am   BACKBONE|DICT|INTERRES
    98   49  112 1    
    99   50   51 2    
   100   50   52 1    
   101   52   53 1    
   102   52   54 1    
   103   52  113 1    
   104   53  114 1    
   105   53  115 1    
   106   53  116 1    
   107   54   55 am   BACKBONE|DICT|INTERRES
   108   54  117 1    
   109   55   56 2    
   110   55   57 1    
   111   57   58 1    
   112   57   59 1    
   113   57  118 1    
   114   58  119 1    
   115   58  120 1    
   116   58  121 1    
   117   59   60 am   BACKBONE|DICT|INTERRES
   118   59  122 1    
   119   60   61 2    
   120   60   62 1    
   121   62   63 1    
   122   62   64 1    
   123   62  123 1    
   124   63  124 1    
   125   63  125 1    
   126   63  126 1    
   127   64   65 am   BACKBONE|DICT|INTERRES
   128   64  127 1    
   129   65   66 2    
@<TRIPOS>SUBSTRUCTURE
     1 UNK         1 GROUP             0       ****    0 ROOT    
