@<TRIPOS>MOLECULE
3R134
127   129    1
SMALL
USER_CHARGES


@<TRIPOS>ATOM
      1 CA         32.8761  -43.9127  -47.4270 C.3       0 UNK        -0.1968 
      2 C          34.1022  -44.4412  -48.1570 C.2       0 UNK         0.4852 
      3 O          35.0634  -44.8620  -47.5116 O.2       0 UNK        -0.5359 
      4 N          34.0764  -44.4202  -49.4965 N.am      1 UNK        -0.4300 
      5 CA         35.1544  -44.9072  -50.3668 C.3       1 UNK         0.0863 
      6 C6         35.0081  -44.3648  -51.8124 C.3       11 UNK        -0.0953 
      7 S7         33.4591  -44.8776  -52.6336 S.3       11 UNK        -0.2369 
      8 C8         33.1860  -43.5018  -53.7860 C.3       11 UNK         0.0226 
      9 C9         32.0354  -43.8322  -54.7208 C.ar      11 UNK        -0.0699 
     10 C10        32.2875  -44.3987  -55.9731 C.ar      11 UNK        -0.0804 
     11 C11        31.2313  -44.7664  -56.8122 C.ar      11 UNK        -0.0871 
     12 C12        29.9149  -44.5522  -56.3912 C.ar      11 UNK        -0.1008 
     13 C13        29.6502  -43.9616  -55.1505 C.ar      11 UNK        -0.0735 
     14 C14        30.7162  -43.6036  -54.3204 C.ar      11 UNK        -0.0945 
     15 C15        28.2187  -43.7439  -54.6785 C.3       11 UNK         0.0169 
     16 S16        27.5808  -42.0974  -55.1261 S.3       11 UNK        -0.2669 
     17 C17        27.0524  -42.3607  -56.8544 C.3       11 UNK        -0.0850 
     18 CA         25.5982  -42.9125  -56.9585 C.3       10 UNK         0.0855 
     19 C          24.5196  -41.7966  -57.0083 C.2       10 UNK         0.5543 
     20 N          24.4698  -40.9361  -56.0021 N.am      10 UNK        -0.7343 
     21 O          23.7306  -41.7003  -57.9478 O.2       10 UNK        -0.5027 
     22 N          25.4364  -43.8500  -58.0764 N.am      10 UNK        -0.4495 
     23 C          25.8906  -45.1058  -58.1049 C.2       10 UNK         0.4903 
     24 O          26.5407  -45.6196  -57.1960 O.2       10 UNK        -0.4860 
     25 CA         25.5842  -45.9120  -59.3715 C.3       9 UNK         0.0227 
     26 CB         26.4486  -45.4328  -60.5523 C.3       9 UNK        -0.1964 
     27 N          25.8509  -47.3287  -59.1283 N.am      9 UNK        -0.4231 
     28 C          25.1629  -48.3479  -59.6557 C.2       9 UNK         0.5014 
     29 O          24.1921  -48.2034  -60.4006 O.2       9 UNK        -0.5270 
     30 CA         25.6325  -49.7712  -59.3193 C.3       8 UNK         0.0284 
     31 CB         26.7502  -50.2019  -60.2847 C.3       8 UNK        -0.1977 
     32 N          26.1167  -49.8944  -57.9421 N.am      8 UNK        -0.4342 
     33 C          25.4439  -50.4856  -56.9439 C.2       8 UNK         0.5039 
     34 O          24.3020  -50.9322  -57.0637 O.2       8 UNK        -0.5547 
     35 CA         26.1584  -50.6463  -55.5873 C.3       7 UNK         0.0281 
     36 CB         26.6133  -52.1024  -55.3933 C.3       7 UNK        -0.1963 
     37 N          27.3191  -49.7669  -55.4462 N.am      7 UNK        -0.4444 
     38 C          27.2497  -48.4807  -55.0744 C.2       7 UNK         0.5104 
     39 O          26.2129  -47.9401  -54.6891 O.2       7 UNK        -0.5100 
     40 CA         28.5443  -47.6496  -55.1627 C.3       6 UNK         0.0396 
     41 CB         29.1459  -47.4188  -53.7684 C.3       6 UNK        -0.1801 
     42 N          29.5653  -48.2189  -56.0484 N.am      6 UNK        -0.4747 
     43 C          29.4237  -48.3924  -57.3730 C.2       6 UNK         0.5012 
     44 O          28.4049  -48.0826  -57.9906 O.2       6 UNK        -0.5003 
     45 CA         30.5659  -49.0935  -58.1383 C.3       5 UNK         0.0782 
     46 C46        31.3750  -48.1006  -59.0076 C.3       11 UNK        -0.0868 
     47 S47        32.4221  -46.9550  -58.0429 S.3       11 UNK        -0.2515 
     48 C48        31.5147  -45.3779  -58.1777 C.3       11 UNK         0.0199 
     49 N          31.4303  -49.9121  -57.2823 N.am      5 UNK        -0.4607 
     50 C          31.0355  -50.9909  -56.5926 C.2       4 UNK         0.5031 
     51 O          29.8866  -51.4334  -56.6217 O.2       4 UNK        -0.5119 
     52 CA         32.0853  -51.6666  -55.6926 C.3       4 UNK         0.0263 
     53 CB         32.7360  -52.8498  -56.4266 C.3       4 UNK        -0.1967 
     54 N          33.1329  -50.7571  -55.2091 N.am      4 UNK        -0.4237 
     55 C          32.9182  -49.7137  -54.3959 C.2       3 UNK         0.4908 
     56 O          31.8016  -49.3707  -54.0023 O.2       3 UNK        -0.5102 
     57 CA         34.1497  -48.8879  -53.9946 C.3       3 UNK         0.0241 
     58 CB         34.2884  -47.6569  -54.9042 C.3       3 UNK        -0.1971 
     59 N          34.0489  -48.4468  -52.6036 N.am      3 UNK        -0.4139 
     60 C          34.2457  -49.2358  -51.5376 C.2       2 UNK         0.5016 
     61 O          34.5955  -50.4150  -51.6240 O.2       2 UNK        -0.5319 
     62 CA         34.0054  -48.6108  -50.1453 C.3       2 UNK         0.0286 
     63 CB         34.8386  -49.2869  -49.0348 C.3       2 UNK        -0.1963 
     64 N          34.1739  -47.1506  -50.1117 N.am      2 UNK        -0.4790 
     65 C          35.2925  -46.4470  -50.3587 C.2       1 UNK         0.5024 
     66 O          36.3882  -46.9542  -50.6017 O.2       1 UNK        -0.4888 
     67 H67        32.1057  -43.5701  -48.1176 H         1 UNK         0.0892 
     68 H68        32.4466  -44.6942  -46.8008 H         1 UNK         0.0892 
     69 H69        33.1529  -43.0759  -46.7863 H         1 UNK         0.0892 
     70 H70        33.2642  -44.0574  -49.9759 H         1 UNK         0.3107 
     71 H71        36.0924  -44.5138  -49.9686 H         1 UNK         0.0773 
     72 H72        35.8493  -44.6855  -52.4302 H         1 UNK         0.0680 
     73 H73        35.0537  -43.2748  -51.7943 H         1 UNK         0.0680 
     74 H74        34.0981  -43.3157  -54.3554 H         1 UNK         0.0650 
     75 H75        32.9711  -42.5903  -53.2264 H         1 UNK         0.0650 
     76 H76        33.3069  -44.5770  -56.2873 H         1 UNK         0.1397 
     77 H77        29.0942  -44.8545  -57.0267 H         1 UNK         0.1363 
     78 H78        30.5192  -43.1667  -53.3510 H         1 UNK         0.1355 
     79 H79        27.5580  -44.5139  -55.0748 H         1 UNK         0.0707 
     80 H80        28.1745  -43.8483  -53.5934 H         1 UNK         0.0707 
     81 H81        27.1569  -41.4226  -57.4027 H         1 UNK         0.1034 
     82 H82        27.7621  -43.0363  -57.3283 H         1 UNK         0.1034 
     83 H83        25.3704  -43.4887  -56.0593 H         1 UNK         0.0482 
     84 H84        25.1304  -41.0010  -55.2419 H         1 UNK         0.3460 
     85 H85        23.7789  -40.2022  -56.0110 H         1 UNK         0.3460 
     86 H86        24.8711  -43.4957  -58.8374 H         1 UNK         0.2989 
     87 H87        24.5282  -45.7678  -59.6093 H         1 UNK         0.0559 
     88 H88        27.5128  -45.5504  -60.3424 H         1 UNK         0.0848 
     89 H89        26.2727  -44.3793  -60.7725 H         1 UNK         0.0848 
     90 H90        26.2240  -45.9927  -61.4602 H         1 UNK         0.0848 
     91 H91        26.6406  -47.5116  -58.5121 H         1 UNK         0.3144 
     92 H92        24.7846  -50.4410  -59.4785 H         1 UNK         0.0727 
     93 H93        27.0635  -51.2287  -60.0947 H         1 UNK         0.0790 
     94 H94        27.6295  -49.5621  -60.2017 H         1 UNK         0.0790 
     95 H95        26.4100  -50.1538  -61.3201 H         1 UNK         0.0790 
     96 H96        27.0231  -49.4835  -57.7477 H         1 UNK         0.3215 
     97 H97        25.4338  -50.4110  -54.8046 H         1 UNK         0.0863 
     98 H98        27.0842  -52.2456  -54.4207 H         1 UNK         0.0808 
     99 H99        27.3263  -52.4086  -56.1599 H         1 UNK         0.0808 
    100 H100       25.7652  -52.7866  -55.4459 H         1 UNK         0.0808 
    101 H101       28.2161  -50.1438  -55.7294 H         1 UNK         0.3118 
    102 H102       28.2688  -46.6804  -55.5733 H         1 UNK         0.0546 
    103 H103       28.4355  -46.9069  -53.1182 H         1 UNK         0.0828 
    104 H104       30.0418  -46.7989  -53.8201 H         1 UNK         0.0828 
    105 H105       29.4137  -48.3585  -53.2844 H         1 UNK         0.0828 
    106 H106       30.4238  -48.5255  -55.6060 H         1 UNK         0.3005 
    107 H107       30.0710  -49.7858  -58.8237 H         1 UNK         0.1257 
    108 H108       30.7157  -47.5473  -59.6787 H         1 UNK         0.0775 
    109 H109       32.0374  -48.6638  -59.6666 H         1 UNK         0.0775 
    110 H110       32.1115  -44.6783  -58.7644 H         1 UNK         0.0840 
    111 H111       30.5834  -45.5156  -58.7282 H         1 UNK         0.0840 
    112 H112       32.3852  -49.5985  -57.1892 H         1 UNK         0.2987 
    113 H113       31.5570  -52.0551  -54.8192 H         1 UNK         0.0785 
    114 H114       31.9803  -53.5556  -56.7752 H         1 UNK         0.0798 
    115 H115       33.4119  -53.4007  -55.7722 H         1 UNK         0.0798 
    116 H116       33.3030  -52.5227  -57.2992 H         1 UNK         0.0798 
    117 H117       34.0791  -50.9649  -55.4960 H         1 UNK         0.3079 
    118 H118       35.0472  -49.5017  -54.0982 H         1 UNK         0.0794 
    119 H119       33.3883  -47.0400  -54.8886 H         1 UNK         0.0786 
    120 H120       34.4610  -47.9539  -55.9391 H         1 UNK         0.0786 
    121 H121       35.1284  -47.0303  -54.6037 H         1 UNK         0.0786 
    122 H122       33.7320  -47.4998  -52.4506 H         1 UNK         0.3032 
    123 H123       32.9538  -48.7987  -49.9216 H         1 UNK         0.1094 
    124 H124       35.9088  -49.2181  -49.2314 H         1 UNK         0.0794 
    125 H125       34.6459  -48.8336  -48.0624 H         1 UNK         0.0794 
    126 H126       34.5929  -50.3462  -48.9506 H         1 UNK         0.0794 
    127 H127       33.3320  -46.6200  -49.9343 H         1 UNK         0.3016 
@<TRIPOS>BOND
     1    1    2 1    
     2    1   67 1    
     3    1   68 1    
     4    1   69 1    
     5    2    3 2    
     6    2    4 am   BACKBONE|DICT|INTERRES
     7    4    5 1    
     8    4   70 1    
     9    5    6 1    
    10    5   65 1    
    11    5   71 1    
    12    6    7 1    
    13    6   72 1    
    14    6   73 1    
    15    7    8 1    
    16    8    9 1    
    17    8   74 1    
    18    8   75 1    
    19    9   10 ar   
    20    9   14 ar   
    21   10   11 ar   
    22   10   76 1    
    23   11   12 ar   
    24   11   48 1    
    25   12   13 ar   
    26   12   77 1    
    27   13   14 ar   
    28   13   15 1    
    29   14   78 1    
    30   15   16 1    
    31   15   79 1    
    32   15   80 1    
    33   16   17 1    
    34   17   18 1    
    35   17   81 1    
    36   17   82 1    
    37   18   19 1    
    38   18   22 1    
    39   18   83 1    
    40   19   20 am   BACKBONE|DICT|INTERRES
    41   19   21 2    
    42   20   84 1    
    43   20   85 1    
    44   22   23 am   BACKBONE|DICT|INTERRES
    45   22   86 1    
    46   23   24 2    
    47   23   25 1    
    48   25   26 1    
    49   25   27 1    
    50   25   87 1    
    51   26   88 1    
    52   26   89 1    
    53   26   90 1    
    54   27   28 am   BACKBONE|DICT|INTERRES
    55   27   91 1    
    56   28   29 2    
    57   28   30 1    
    58   30   31 1    
    59   30   32 1    
    60   30   92 1    
    61   31   93 1    
    62   31   94 1    
    63   31   95 1    
    64   32   33 am   BACKBONE|DICT|INTERRES
    65   32   96 1    
    66   33   34 2    
    67   33   35 1    
    68   35   36 1    
    69   35   37 1    
    70   35   97 1    
    71   36   98 1    
    72   36   99 1    
    73   36  100 1    
    74   37   38 am   BACKBONE|DICT|INTERRES
    75   37  101 1    
    76   38   39 2    
    77   38   40 1    
    78   40   41 1    
    79   40   42 1    
    80   40  102 1    
    81   41  103 1    
    82   41  104 1    
    83   41  105 1    
    84   42   43 am   BACKBONE|DICT|INTERRES
    85   42  106 1    
    86   43   44 2    
    87   43   45 1    
    88   45   46 1    
    89   45   49 1    
    90   45  107 1    
    91   46   47 1    
    92   46  108 1    
    93   46  109 1    
    94   47   48 1    
    95   48  110 1    
    96   48  111 1    
    97   49   50 am   BACKBONE|DICT|INTERRES
    98   49  112 1    
    99   50   51 2    
   100   50   52 1    
   101   52   53 1    
   102   52   54 1    
   103   52  113 1    
   104   53  114 1    
   105   53  115 1    
   106   53  116 1    
   107   54   55 am   BACKBONE|DICT|INTERRES
   108   54  117 1    
   109   55   56 2    
   110   55   57 1    
   111   57   58 1    
   112   57   59 1    
   113   57  118 1    
   114   58  119 1    
   115   58  120 1    
   116   58  121 1    
   117   59   60 am   BACKBONE|DICT|INTERRES
   118   59  122 1    
   119   60   61 2    
   120   60   62 1    
   121   62   63 1    
   122   62   64 1    
   123   62  123 1    
   124   63  124 1    
   125   63  125 1    
   126   63  126 1    
   127   64   65 am   BACKBONE|DICT|INTERRES
   128   64  127 1    
   129   65   66 2    
@<TRIPOS>SUBSTRUCTURE
     1 UNK         1 GROUP             0       ****    0 ROOT    
