@<TRIPOS>MOLECULE
3R134
127   129    1
SMALL
USER_CHARGES


@<TRIPOS>ATOM
      1 CA         31.9443  -49.6109  -57.8652 C.3       0 UNK        -0.1968 
      2 C          32.4058  -49.2207  -56.4709 C.2       0 UNK         0.4852 
      3 O          32.5117  -50.0811  -55.5962 O.2       0 UNK        -0.5359 
      4 N          32.7253  -47.9368  -56.2579 N.am      1 UNK        -0.4300 
      5 CA         33.1869  -47.3816  -54.9771 C.3       1 UNK         0.0863 
      6 C6         32.9966  -45.8508  -54.8713 C.3       11 UNK        -0.0953 
      7 S7         33.5102  -44.8967  -56.3389 S.3       11 UNK        -0.2369 
      8 C8         33.4389  -43.1932  -55.6909 C.3       11 UNK         0.0226 
      9 C9         32.1008  -42.8779  -55.0333 C.ar      11 UNK        -0.0699 
     10 C10        31.9648  -42.9829  -53.6456 C.ar      11 UNK        -0.0804 
     11 C11        30.7350  -42.7415  -53.0290 C.ar      11 UNK        -0.0871 
     12 C12        29.6421  -42.3515  -53.8086 C.ar      11 UNK        -0.1008 
     13 C13        29.7700  -42.2186  -55.1954 C.ar      11 UNK        -0.0735 
     14 C14        30.9995  -42.4935  -55.8044 C.ar      11 UNK        -0.0945 
     15 C15        28.5835  -41.7553  -56.0272 C.3       11 UNK         0.0169 
     16 S16        27.3333  -43.0623  -56.1926 S.3       11 UNK        -0.2669 
     17 C17        26.0743  -42.1874  -57.1815 C.3       11 UNK        -0.0850 
     18 CA         24.9767  -43.1436  -57.7321 C.3       10 UNK         0.0855 
     19 C          23.7940  -42.3796  -58.4034 C.2       10 UNK         0.5543 
     20 N          23.1349  -42.9396  -59.4105 N.am      10 UNK        -0.7343 
     21 O          23.4442  -41.2772  -57.9880 O.2       10 UNK        -0.5027 
     22 N          25.5304  -44.2543  -58.5287 N.am      10 UNK        -0.4495 
     23 C          26.1902  -44.1585  -59.6889 C.2       10 UNK         0.4903 
     24 O          26.4078  -43.0962  -60.2741 O.2       10 UNK        -0.4860 
     25 CA         26.7080  -45.4857  -60.2777 C.3       9 UNK         0.0227 
     26 CB         27.2527  -45.3248  -61.7097 C.3       9 UNK        -0.1964 
     27 N          27.7504  -46.0805  -59.4365 N.am      9 UNK        -0.4231 
     28 C          27.5426  -46.7303  -58.2840 C.2       9 UNK         0.5014 
     29 O          26.4240  -46.9115  -57.7933 O.2       9 UNK        -0.5270 
     30 CA         28.8032  -47.2309  -57.5592 C.3       8 UNK         0.0284 
     31 CB         29.5039  -46.0819  -56.8163 C.3       8 UNK        -0.1977 
     32 N          28.4901  -48.2938  -56.6040 N.am      8 UNK        -0.4342 
     33 C          28.2419  -49.5677  -56.9390 C.2       8 UNK         0.5039 
     34 O          28.2966  -49.9869  -58.0965 O.2       8 UNK        -0.5547 
     35 CA         27.8970  -50.5563  -55.8105 C.3       7 UNK         0.0281 
     36 CB         29.0507  -51.5510  -55.5912 C.3       7 UNK        -0.1963 
     37 N          27.6014  -49.8830  -54.5439 N.am      7 UNK        -0.4444 
     38 C          26.3729  -49.5165  -54.1498 C.2       7 UNK         0.5104 
     39 O          25.3512  -49.7528  -54.7952 O.2       7 UNK        -0.5100 
     40 CA         26.2451  -48.7652  -52.8087 C.3       6 UNK         0.0396 
     41 CB         25.8091  -49.7319  -51.6960 C.3       6 UNK        -0.1801 
     42 N          27.4683  -48.0765  -52.3886 N.am      6 UNK        -0.4747 
     43 C          28.0286  -47.0398  -53.0296 C.2       6 UNK         0.5012 
     44 O          27.5378  -46.5170  -54.0276 O.2       6 UNK        -0.5003 
     45 CA         29.3924  -46.5430  -52.5017 C.3       5 UNK         0.0782 
     46 C46        29.1844  -45.3471  -51.5401 C.3       11 UNK        -0.0868 
     47 S47        30.7583  -44.6175  -50.9734 S.3       11 UNK        -0.2515 
     48 C48        30.6018  -42.8845  -51.5194 C.3       11 UNK         0.0199 
     49 N          30.1974  -47.6162  -51.8908 N.am      5 UNK        -0.4607 
     50 C          30.5829  -48.7403  -52.5090 C.2       4 UNK         0.5031 
     51 O          30.2712  -49.0209  -53.6664 O.2       4 UNK        -0.5119 
     52 CA         31.3884  -49.7453  -51.6835 C.3       4 UNK         0.0263 
     53 CB         30.4234  -50.6905  -50.9387 C.3       4 UNK        -0.1967 
     54 N          32.2780  -50.5072  -52.5636 N.am      4 UNK        -0.4237 
     55 C          33.2827  -51.2899  -52.1418 C.2       3 UNK         0.4908 
     56 O          33.5912  -51.4284  -50.9574 O.2       3 UNK        -0.5102 
     57 CA         34.0922  -52.0374  -53.2108 C.3       3 UNK         0.0241 
     58 CB         33.2097  -53.0186  -54.0039 C.3       3 UNK        -0.1971 
     59 N          34.7217  -51.0820  -54.1185 N.am      3 UNK        -0.4139 
     60 C          35.9796  -50.6265  -54.0070 C.2       2 UNK         0.5016 
     61 O          36.7952  -51.0551  -53.1895 O.2       2 UNK        -0.5319 
     62 CA         36.4048  -49.4845  -54.9549 C.3       2 UNK         0.0286 
     63 CB         37.0909  -50.0495  -56.2089 C.3       2 UNK        -0.1963 
     64 N          35.2767  -48.6423  -55.3599 N.am      2 UNK        -0.4790 
     65 C          34.5815  -47.8615  -54.5202 C.2       1 UNK         0.5024 
     66 O          34.9698  -47.5832  -53.3850 O.2       1 UNK        -0.4888 
     67 H67        32.7162  -50.1961  -58.3638 H         1 UNK         0.0892 
     68 H68        31.0450  -50.2217  -57.8047 H         1 UNK         0.0892 
     69 H69        31.7234  -48.7394  -58.4803 H         1 UNK         0.0892 
     70 H70        32.6623  -47.2675  -57.0125 H         1 UNK         0.3107 
     71 H71        32.5274  -47.8021  -54.2215 H         1 UNK         0.0773 
     72 H72        33.5007  -45.4520  -53.9892 H         1 UNK         0.0680 
     73 H73        31.9376  -45.6474  -54.7118 H         1 UNK         0.0680 
     74 H74        33.6221  -42.4952  -56.5090 H         1 UNK         0.0650 
     75 H75        34.2541  -43.0500  -54.9800 H         1 UNK         0.0650 
     76 H76        32.8123  -43.2787  -53.0424 H         1 UNK         0.1397 
     77 H77        28.6884  -42.1484  -53.3405 H         1 UNK         0.1363 
     78 H78        31.1023  -42.4077  -56.8775 H         1 UNK         0.1355 
     79 H79        28.1320  -40.8795  -55.5587 H         1 UNK         0.0707 
     80 H80        28.9100  -41.4429  -57.0204 H         1 UNK         0.0707 
     81 H81        25.6307  -41.4213  -56.5430 H         1 UNK         0.1034 
     82 H82        26.5616  -41.6556  -58.0002 H         1 UNK         0.1034 
     83 H83        24.5199  -43.6255  -56.8670 H         1 UNK         0.0482 
     84 H84        23.4043  -43.8483  -59.7516 H         1 UNK         0.3460 
     85 H85        22.3645  -42.4467  -59.8340 H         1 UNK         0.3460 
     86 H86        25.4677  -45.1765  -58.1082 H         1 UNK         0.2989 
     87 H87        25.8614  -46.1741  -60.3240 H         1 UNK         0.0559 
     88 H88        28.1175  -44.6608  -61.7436 H         1 UNK         0.0848 
     89 H89        26.4936  -44.9039  -62.3705 H         1 UNK         0.0848 
     90 H90        27.5495  -46.2848  -62.1323 H         1 UNK         0.0848 
     91 H91        28.7021  -45.9411  -59.7444 H         1 UNK         0.3144 
     92 H92        29.4923  -47.6310  -58.3055 H         1 UNK         0.0727 
     93 H93        29.8460  -45.3094  -57.5059 H         1 UNK         0.0790 
     94 H94        30.3748  -46.4381  -56.2703 H         1 UNK         0.0790 
     95 H95        28.8400  -45.6006  -56.0991 H         1 UNK         0.0790 
     96 H96        28.3416  -48.0082  -55.6457 H         1 UNK         0.3215 
     97 H97        27.0236  -51.1257  -56.1359 H         1 UNK         0.0863 
     98 H98        29.9729  -51.0470  -55.3029 H         1 UNK         0.0808 
     99 H99        29.2615  -52.1113  -56.5030 H         1 UNK         0.0808 
    100 H100       28.8088  -52.2761  -54.8143 H         1 UNK         0.0808 
    101 H101       28.4068  -49.6199  -53.9835 H         1 UNK         0.3118 
    102 H102       25.4643  -48.0116  -52.9312 H         1 UNK         0.0546 
    103 H103       26.5603  -50.5011  -51.5116 H         1 UNK         0.0828 
    104 H104       24.8816  -50.2408  -51.9624 H         1 UNK         0.0828 
    105 H105       25.6282  -49.2052  -50.7589 H         1 UNK         0.0828 
    106 H106       27.9427  -48.4459  -51.5775 H         1 UNK         0.3005 
    107 H107       29.9448  -46.1830  -53.3726 H         1 UNK         0.1257 
    108 H108       28.6199  -45.6569  -50.6585 H         1 UNK         0.0775 
    109 H109       28.5861  -44.5722  -52.0237 H         1 UNK         0.0775 
    110 H110       29.6535  -42.4758  -51.1665 H         1 UNK         0.0840 
    111 H111       31.3828  -42.2943  -51.0380 H         1 UNK         0.0840 
    112 H112       30.4908  -47.4525  -50.9381 H         1 UNK         0.2987 
    113 H113       31.9974  -49.1958  -50.9625 H         1 UNK         0.0785 
    114 H114       29.7321  -50.1318  -50.3066 H         1 UNK         0.0798 
    115 H115       30.9576  -51.3824  -50.2878 H         1 UNK         0.0798 
    116 H116       29.8262  -51.2816  -51.6344 H         1 UNK         0.0798 
    117 H117       32.0933  -50.4039  -53.5596 H         1 UNK         0.3079 
    118 H118       34.8591  -52.6246  -52.7009 H         1 UNK         0.0794 
    119 H119       32.7348  -53.7393  -53.3370 H         1 UNK         0.0786 
    120 H120       33.8015  -53.5847  -54.7233 H         1 UNK         0.0786 
    121 H121       32.4156  -52.5131  -54.5539 H         1 UNK         0.0786 
    122 H122       34.0983  -50.6508  -54.7974 H         1 UNK         0.3032 
    123 H123       37.1233  -48.8610  -54.4175 H         1 UNK         0.1094 
    124 H124       37.9521  -50.6622  -55.9383 H         1 UNK         0.0794 
    125 H125       36.4155  -50.6766  -56.7923 H         1 UNK         0.0794 
    126 H126       37.4540  -49.2513  -56.8567 H         1 UNK         0.0794 
    127 H127       34.8902  -48.8074  -56.2778 H         1 UNK         0.3016 
@<TRIPOS>BOND
     1    1    2 1    
     2    1   67 1    
     3    1   68 1    
     4    1   69 1    
     5    2    3 2    
     6    2    4 am   BACKBONE|DICT|INTERRES
     7    4    5 1    
     8    4   70 1    
     9    5    6 1    
    10    5   65 1    
    11    5   71 1    
    12    6    7 1    
    13    6   72 1    
    14    6   73 1    
    15    7    8 1    
    16    8    9 1    
    17    8   74 1    
    18    8   75 1    
    19    9   10 ar   
    20    9   14 ar   
    21   10   11 ar   
    22   10   76 1    
    23   11   12 ar   
    24   11   48 1    
    25   12   13 ar   
    26   12   77 1    
    27   13   14 ar   
    28   13   15 1    
    29   14   78 1    
    30   15   16 1    
    31   15   79 1    
    32   15   80 1    
    33   16   17 1    
    34   17   18 1    
    35   17   81 1    
    36   17   82 1    
    37   18   19 1    
    38   18   22 1    
    39   18   83 1    
    40   19   20 am   BACKBONE|DICT|INTERRES
    41   19   21 2    
    42   20   84 1    
    43   20   85 1    
    44   22   23 am   BACKBONE|DICT|INTERRES
    45   22   86 1    
    46   23   24 2    
    47   23   25 1    
    48   25   26 1    
    49   25   27 1    
    50   25   87 1    
    51   26   88 1    
    52   26   89 1    
    53   26   90 1    
    54   27   28 am   BACKBONE|DICT|INTERRES
    55   27   91 1    
    56   28   29 2    
    57   28   30 1    
    58   30   31 1    
    59   30   32 1    
    60   30   92 1    
    61   31   93 1    
    62   31   94 1    
    63   31   95 1    
    64   32   33 am   BACKBONE|DICT|INTERRES
    65   32   96 1    
    66   33   34 2    
    67   33   35 1    
    68   35   36 1    
    69   35   37 1    
    70   35   97 1    
    71   36   98 1    
    72   36   99 1    
    73   36  100 1    
    74   37   38 am   BACKBONE|DICT|INTERRES
    75   37  101 1    
    76   38   39 2    
    77   38   40 1    
    78   40   41 1    
    79   40   42 1    
    80   40  102 1    
    81   41  103 1    
    82   41  104 1    
    83   41  105 1    
    84   42   43 am   BACKBONE|DICT|INTERRES
    85   42  106 1    
    86   43   44 2    
    87   43   45 1    
    88   45   46 1    
    89   45   49 1    
    90   45  107 1    
    91   46   47 1    
    92   46  108 1    
    93   46  109 1    
    94   47   48 1    
    95   48  110 1    
    96   48  111 1    
    97   49   50 am   BACKBONE|DICT|INTERRES
    98   49  112 1    
    99   50   51 2    
   100   50   52 1    
   101   52   53 1    
   102   52   54 1    
   103   52  113 1    
   104   53  114 1    
   105   53  115 1    
   106   53  116 1    
   107   54   55 am   BACKBONE|DICT|INTERRES
   108   54  117 1    
   109   55   56 2    
   110   55   57 1    
   111   57   58 1    
   112   57   59 1    
   113   57  118 1    
   114   58  119 1    
   115   58  120 1    
   116   58  121 1    
   117   59   60 am   BACKBONE|DICT|INTERRES
   118   59  122 1    
   119   60   61 2    
   120   60   62 1    
   121   62   63 1    
   122   62   64 1    
   123   62  123 1    
   124   63  124 1    
   125   63  125 1    
   126   63  126 1    
   127   64   65 am   BACKBONE|DICT|INTERRES
   128   64  127 1    
   129   65   66 2    
@<TRIPOS>SUBSTRUCTURE
     1 UNK         1 GROUP             0       ****    0 ROOT    
