@<TRIPOS>MOLECULE
3R134
127   129    1
SMALL
USER_CHARGES


@<TRIPOS>ATOM
      1 CA         34.4208  -48.3667  -59.1606 C.3       0 UNK        -0.1968 
      2 C          34.7613  -48.0365  -57.7149 C.2       0 UNK         0.4852 
      3 O          35.9377  -47.8721  -57.3900 O.2       0 UNK        -0.5359 
      4 N          33.7402  -47.9567  -56.8507 N.am      1 UNK        -0.4300 
      5 CA         33.8110  -47.6274  -55.4185 C.3       1 UNK         0.0863 
      6 C6         34.3598  -46.2015  -55.1263 C.3       11 UNK        -0.0953 
      7 S7         33.2325  -44.9111  -55.7516 S.3       11 UNK        -0.2369 
      8 C8         32.5211  -44.3017  -54.1842 C.3       11 UNK         0.0226 
      9 C9         31.2177  -43.5149  -54.3244 C.ar      11 UNK        -0.0699 
     10 C10        30.3125  -43.5272  -53.2591 C.ar      11 UNK        -0.0804 
     11 C11        29.0950  -42.8376  -53.3323 C.ar      11 UNK        -0.0871 
     12 C12        28.8084  -42.0945  -54.4815 C.ar      11 UNK        -0.1008 
     13 C13        29.7140  -42.0442  -55.5448 C.ar      11 UNK        -0.0735 
     14 C14        30.9135  -42.7581  -55.4623 C.ar      11 UNK        -0.0945 
     15 C15        29.4196  -41.1930  -56.7713 C.3       11 UNK         0.0169 
     16 S16        28.4798  -42.1149  -58.0255 S.3       11 UNK        -0.2669 
     17 C17        26.7639  -41.6008  -57.6557 C.3       11 UNK        -0.0850 
     18 CA         25.6871  -42.5337  -58.2689 C.3       10 UNK         0.0855 
     19 C          25.6763  -42.4709  -59.8272 C.2       10 UNK         0.5543 
     20 N          26.0619  -43.5243  -60.5399 N.am      10 UNK        -0.7343 
     21 O          25.2993  -41.4485  -60.3947 O.2       10 UNK        -0.5027 
     22 N          25.7751  -43.8881  -57.7072 N.am      10 UNK        -0.4495 
     23 C          24.8252  -44.8265  -57.8108 C.2       10 UNK         0.4903 
     24 O          23.6947  -44.6015  -58.2460 O.2       10 UNK        -0.4860 
     25 CA         25.1924  -46.2557  -57.3562 C.3       9 UNK         0.0227 
     26 CB         24.5184  -47.3341  -58.2301 C.3       9 UNK        -0.1964 
     27 N          26.6357  -46.5165  -57.2478 N.am      9 UNK        -0.4231 
     28 C          27.5619  -46.4244  -58.2169 C.2       9 UNK         0.5014 
     29 O          27.3194  -46.0640  -59.3697 O.2       9 UNK        -0.5270 
     30 CA         28.9980  -46.7928  -57.8316 C.3       8 UNK         0.0284 
     31 CB         29.6486  -45.6953  -56.9716 C.3       8 UNK        -0.1977 
     32 N          29.0338  -48.0765  -57.1332 N.am      8 UNK        -0.4342 
     33 C          30.0893  -48.8980  -57.1070 C.2       8 UNK         0.5039 
     34 O          31.1637  -48.6421  -57.6547 O.2       8 UNK        -0.5547 
     35 CA         29.9279  -50.2130  -56.3249 C.3       7 UNK         0.0281 
     36 CB         31.2832  -50.8173  -55.9208 C.3       7 UNK        -0.1963 
     37 N          29.1329  -49.9880  -55.1180 N.am      7 UNK        -0.4444 
     38 C          27.9021  -50.4691  -54.8979 C.2       7 UNK         0.5104 
     39 O          27.3136  -51.2204  -55.6753 O.2       7 UNK        -0.5100 
     40 CA         27.1847  -50.0223  -53.6087 C.3       6 UNK         0.0396 
     41 CB         27.2144  -51.1477  -52.5628 C.3       6 UNK        -0.1801 
     42 N          27.7334  -48.7975  -53.0181 N.am      6 UNK        -0.4747 
     43 C          27.6721  -47.5796  -53.5790 C.2       6 UNK         0.5012 
     44 O          27.1069  -47.3529  -54.6487 O.2       6 UNK        -0.5003 
     45 CA         28.4049  -46.4287  -52.8602 C.3       5 UNK         0.0782 
     46 C46        27.3987  -45.5834  -52.0389 C.3       11 UNK        -0.0868 
     47 S47        28.1772  -44.2607  -51.0494 S.3       11 UNK        -0.2515 
     48 C48        28.0926  -42.8237  -52.1758 C.3       11 UNK         0.0199 
     49 N          29.5592  -46.8688  -52.0642 N.am      5 UNK        -0.4607 
     50 C          30.6258  -47.5251  -52.5385 C.2       4 UNK         0.5031 
     51 O          30.7170  -47.9161  -53.7035 O.2       4 UNK        -0.5119 
     52 CA         31.7860  -47.8060  -51.5636 C.3       4 UNK         0.0263 
     53 CB         31.4608  -47.5151  -50.0803 C.3       4 UNK        -0.1967 
     54 N          32.2998  -49.1691  -51.7324 N.am      4 UNK        -0.4237 
     55 C          31.6071  -50.3113  -51.5896 C.2       3 UNK         0.4908 
     56 O          30.4406  -50.3575  -51.1956 O.2       3 UNK        -0.5102 
     57 CA         32.3291  -51.6109  -51.9884 C.3       3 UNK         0.0241 
     58 CB         31.3455  -52.7460  -52.3342 C.3       3 UNK        -0.1971 
     59 N          33.2039  -51.3640  -53.1357 N.am      3 UNK        -0.4139 
     60 C          34.5220  -51.5878  -53.1837 C.2       2 UNK         0.5016 
     61 O          35.1646  -52.1260  -52.2817 O.2       2 UNK        -0.5319 
     62 CA         35.2558  -51.1030  -54.4495 C.3       2 UNK         0.0286 
     63 CB         35.3745  -52.2469  -55.4694 C.3       2 UNK        -0.1963 
     64 N          34.6391  -49.9405  -55.1053 N.am      2 UNK        -0.4790 
     65 C          34.4849  -48.7235  -54.5583 C.2       1 UNK         0.5024 
     66 O          34.8012  -48.4735  -53.3939 O.2       1 UNK        -0.4888 
     67 H67        34.7620  -47.5673  -59.8176 H         1 UNK         0.0892 
     68 H68        34.9135  -49.2906  -59.4617 H         1 UNK         0.0892 
     69 H69        33.3480  -48.4906  -59.3084 H         1 UNK         0.0892 
     70 H70        32.7940  -48.1345  -57.1963 H         1 UNK         0.3107 
     71 H71        32.7737  -47.6371  -55.0900 H         1 UNK         0.0773 
     72 H72        35.3422  -46.0581  -55.5770 H         1 UNK         0.0680 
     73 H73        34.5039  -46.0399  -54.0569 H         1 UNK         0.0680 
     74 H74        33.2595  -43.6770  -53.6804 H         1 UNK         0.0650 
     75 H75        32.3451  -45.1627  -53.5382 H         1 UNK         0.0650 
     76 H76        30.5651  -44.0826  -52.3673 H         1 UNK         0.1397 
     77 H77        27.8851  -41.5351  -54.5405 H         1 UNK         0.1363 
     78 H78        31.6110  -42.7145  -56.2868 H         1 UNK         0.1355 
     79 H79        28.8830  -40.2863  -56.4875 H         1 UNK         0.0707 
     80 H80        30.3560  -40.8573  -57.2195 H         1 UNK         0.0707 
     81 H81        26.6294  -41.5615  -56.5744 H         1 UNK         0.1034 
     82 H82        26.6235  -40.5765  -58.0064 H         1 UNK         0.1034 
     83 H83        24.7192  -42.1359  -57.9579 H         1 UNK         0.0482 
     84 H84        26.4038  -44.3616  -60.0807 H         1 UNK         0.3460 
     85 H85        26.0467  -43.4732  -61.5457 H         1 UNK         0.3460 
     86 H86        26.6828  -44.1580  -57.3592 H         1 UNK         0.2989 
     87 H87        24.7965  -46.3570  -56.3447 H         1 UNK         0.0559 
     88 H88        24.8254  -47.2577  -59.2738 H         1 UNK         0.0848 
     89 H89        23.4320  -47.2412  -58.2038 H         1 UNK         0.0848 
     90 H90        24.7626  -48.3374  -57.8810 H         1 UNK         0.0848 
     91 H91        26.9343  -46.7779  -56.3075 H         1 UNK         0.3144 
     92 H92        29.5669  -46.8853  -58.7596 H         1 UNK         0.0727 
     93 H93        29.0909  -45.5038  -56.0550 H         1 UNK         0.0790 
     94 H94        29.7108  -44.7566  -57.5212 H         1 UNK         0.0790 
     95 H95        30.6643  -45.9673  -56.6877 H         1 UNK         0.0790 
     96 H96        28.1826  -48.3691  -56.6730 H         1 UNK         0.3215 
     97 H97        29.4293  -50.9169  -56.9943 H         1 UNK         0.0863 
     98 H98        31.1530  -51.7643  -55.3982 H         1 UNK         0.0808 
     99 H99        31.8276  -50.1344  -55.2715 H         1 UNK         0.0808 
    100 H100       31.9057  -51.0164  -56.7944 H         1 UNK         0.0808 
    101 H101       29.5268  -49.3267  -54.4532 H         1 UNK         0.3118 
    102 H102       26.1420  -49.8273  -53.8681 H         1 UNK         0.0546 
    103 H103       28.2338  -51.4016  -52.2711 H         1 UNK         0.0828 
    104 H104       26.7543  -52.0560  -52.9543 H         1 UNK         0.0828 
    105 H105       26.6657  -50.8707  -51.6626 H         1 UNK         0.0828 
    106 H106       28.2557  -48.9035  -52.1583 H         1 UNK         0.3005 
    107 H107       28.8030  -45.7952  -53.6542 H         1 UNK         0.1257 
    108 H108       26.8508  -46.2215  -51.3426 H         1 UNK         0.0775 
    109 H109       26.6461  -45.1417  -52.6953 H         1 UNK         0.0775 
    110 H110       27.0746  -42.7384  -52.5595 H         1 UNK         0.0840 
    111 H111       28.2721  -41.9227  -51.5879 H         1 UNK         0.0840 
    112 H112       29.5515  -46.5907  -51.0935 H         1 UNK         0.2987 
    113 H113       32.5962  -47.1391  -51.8618 H         1 UNK         0.0785 
    114 H114       31.2320  -46.4603  -49.9221 H         1 UNK         0.0798 
    115 H115       32.3125  -47.7503  -49.4419 H         1 UNK         0.0798 
    116 H116       30.6121  -48.0989  -49.7219 H         1 UNK         0.0798 
    117 H117       33.2471  -49.2259  -52.0887 H         1 UNK         0.3079 
    118 H118       32.9170  -51.9184  -51.1212 H         1 UNK         0.0794 
    119 H119       30.7387  -53.0145  -51.4684 H         1 UNK         0.0786 
    120 H120       31.8735  -53.6462  -52.6491 H         1 UNK         0.0786 
    121 H121       30.6615  -52.4596  -53.1336 H         1 UNK         0.0786 
    122 H122       32.7780  -50.9074  -53.9286 H         1 UNK         0.3032 
    123 H123       36.2623  -50.8102  -54.1421 H         1 UNK         0.1094 
    124 H124       35.9800  -51.9532  -56.3272 H         1 UNK         0.0794 
    125 H125       35.8525  -53.1202  -55.0230 H         1 UNK         0.0794 
    126 H126       34.3979  -52.5631  -55.8384 H         1 UNK         0.0794 
    127 H127       34.3649  -50.0562  -56.0702 H         1 UNK         0.3016 
@<TRIPOS>BOND
     1    1    2 1    
     2    1   67 1    
     3    1   68 1    
     4    1   69 1    
     5    2    3 2    
     6    2    4 am   BACKBONE|DICT|INTERRES
     7    4    5 1    
     8    4   70 1    
     9    5    6 1    
    10    5   65 1    
    11    5   71 1    
    12    6    7 1    
    13    6   72 1    
    14    6   73 1    
    15    7    8 1    
    16    8    9 1    
    17    8   74 1    
    18    8   75 1    
    19    9   10 ar   
    20    9   14 ar   
    21   10   11 ar   
    22   10   76 1    
    23   11   12 ar   
    24   11   48 1    
    25   12   13 ar   
    26   12   77 1    
    27   13   14 ar   
    28   13   15 1    
    29   14   78 1    
    30   15   16 1    
    31   15   79 1    
    32   15   80 1    
    33   16   17 1    
    34   17   18 1    
    35   17   81 1    
    36   17   82 1    
    37   18   19 1    
    38   18   22 1    
    39   18   83 1    
    40   19   20 am   BACKBONE|DICT|INTERRES
    41   19   21 2    
    42   20   84 1    
    43   20   85 1    
    44   22   23 am   BACKBONE|DICT|INTERRES
    45   22   86 1    
    46   23   24 2    
    47   23   25 1    
    48   25   26 1    
    49   25   27 1    
    50   25   87 1    
    51   26   88 1    
    52   26   89 1    
    53   26   90 1    
    54   27   28 am   BACKBONE|DICT|INTERRES
    55   27   91 1    
    56   28   29 2    
    57   28   30 1    
    58   30   31 1    
    59   30   32 1    
    60   30   92 1    
    61   31   93 1    
    62   31   94 1    
    63   31   95 1    
    64   32   33 am   BACKBONE|DICT|INTERRES
    65   32   96 1    
    66   33   34 2    
    67   33   35 1    
    68   35   36 1    
    69   35   37 1    
    70   35   97 1    
    71   36   98 1    
    72   36   99 1    
    73   36  100 1    
    74   37   38 am   BACKBONE|DICT|INTERRES
    75   37  101 1    
    76   38   39 2    
    77   38   40 1    
    78   40   41 1    
    79   40   42 1    
    80   40  102 1    
    81   41  103 1    
    82   41  104 1    
    83   41  105 1    
    84   42   43 am   BACKBONE|DICT|INTERRES
    85   42  106 1    
    86   43   44 2    
    87   43   45 1    
    88   45   46 1    
    89   45   49 1    
    90   45  107 1    
    91   46   47 1    
    92   46  108 1    
    93   46  109 1    
    94   47   48 1    
    95   48  110 1    
    96   48  111 1    
    97   49   50 am   BACKBONE|DICT|INTERRES
    98   49  112 1    
    99   50   51 2    
   100   50   52 1    
   101   52   53 1    
   102   52   54 1    
   103   52  113 1    
   104   53  114 1    
   105   53  115 1    
   106   53  116 1    
   107   54   55 am   BACKBONE|DICT|INTERRES
   108   54  117 1    
   109   55   56 2    
   110   55   57 1    
   111   57   58 1    
   112   57   59 1    
   113   57  118 1    
   114   58  119 1    
   115   58  120 1    
   116   58  121 1    
   117   59   60 am   BACKBONE|DICT|INTERRES
   118   59  122 1    
   119   60   61 2    
   120   60   62 1    
   121   62   63 1    
   122   62   64 1    
   123   62  123 1    
   124   63  124 1    
   125   63  125 1    
   126   63  126 1    
   127   64   65 am   BACKBONE|DICT|INTERRES
   128   64  127 1    
   129   65   66 2    
@<TRIPOS>SUBSTRUCTURE
     1 UNK         1 GROUP             0       ****    0 ROOT    
