@<TRIPOS>MOLECULE
3R134
127   129    1
SMALL
USER_CHARGES


@<TRIPOS>ATOM
      1 CA         35.9038  -43.9635  -49.1396 C.3       0 UNK        -0.1968 
      2 C          34.6403  -44.7593  -49.4355 C.2       0 UNK         0.4852 
      3 O          33.8928  -45.0771  -48.5091 O.2       0 UNK        -0.5359 
      4 N          34.4098  -45.0869  -50.7170 N.am      1 UNK        -0.4300 
      5 CA         33.2438  -45.8205  -51.2426 C.3       1 UNK         0.0863 
      6 C6         31.8962  -45.0686  -51.0504 C.3       11 UNK        -0.0953 
      7 S7         31.9096  -43.3877  -51.7627 S.3       11 UNK        -0.2369 
      8 C8         30.4730  -43.4333  -52.8918 C.3       11 UNK         0.0226 
      9 C9         30.7416  -43.8885  -54.3295 C.ar      11 UNK        -0.0699 
     10 C10        31.9828  -44.3663  -54.7770 C.ar      11 UNK        -0.0804 
     11 C11        32.1729  -44.7177  -56.1189 C.ar      11 UNK        -0.0871 
     12 C12        31.1148  -44.5834  -57.0209 C.ar      11 UNK        -0.1008 
     13 C13        29.8662  -44.1347  -56.5875 C.ar      11 UNK        -0.0735 
     14 C14        29.6881  -43.7931  -55.2442 C.ar      11 UNK        -0.0945 
     15 C15        28.7047  -44.0385  -57.5640 C.3       11 UNK         0.0169 
     16 S16        28.1661  -42.3138  -57.7892 S.3       11 UNK        -0.2669 
     17 C17        26.8579  -42.4907  -59.0488 C.3       11 UNK        -0.0850 
     18 CA         25.4394  -42.5871  -58.4293 C.3       10 UNK         0.0855 
     19 C          24.3545  -42.4339  -59.5298 C.2       10 UNK         0.5543 
     20 N          23.6956  -41.2855  -59.6005 N.am      10 UNK        -0.7343 
     21 O          24.1465  -43.3268  -60.3484 O.2       10 UNK        -0.5027 
     22 N          25.2855  -43.8343  -57.6694 N.am      10 UNK        -0.4495 
     23 C          24.2494  -44.1620  -56.8884 C.2       10 UNK         0.4903 
     24 O          23.3081  -43.4041  -56.6481 O.2       10 UNK        -0.4860 
     25 CA         24.2918  -45.5647  -56.2417 C.3       9 UNK         0.0227 
     26 CB         22.8848  -46.1181  -55.9306 C.3       9 UNK        -0.1964 
     27 N          25.0868  -46.5500  -56.9915 N.am      9 UNK        -0.4231 
     28 C          24.8674  -46.9897  -58.2440 C.2       9 UNK         0.5014 
     29 O          23.9297  -46.6189  -58.9499 O.2       9 UNK        -0.5270 
     30 CA         25.8709  -48.0048  -58.8249 C.3       8 UNK         0.0284 
     31 CB         26.8996  -47.2855  -59.7131 C.3       8 UNK        -0.1977 
     32 N          26.5743  -48.7784  -57.7994 N.am      8 UNK        -0.4342 
     33 C          25.9920  -49.6950  -57.0102 C.2       8 UNK         0.5039 
     34 O          24.8229  -50.0596  -57.1413 O.2       8 UNK        -0.5547 
     35 CA         26.8325  -50.2948  -55.8670 C.3       7 UNK         0.0281 
     36 CB         27.2286  -51.7439  -56.1927 C.3       7 UNK        -0.1963 
     37 N          28.0338  -49.5197  -55.5381 N.am      7 UNK        -0.4444 
     38 C          28.0295  -48.2797  -55.0229 C.2       7 UNK         0.5104 
     39 O          27.0003  -47.6493  -54.7766 O.2       7 UNK        -0.5100 
     40 CA         29.3921  -47.6031  -54.7926 C.3       6 UNK         0.0396 
     41 CB         29.8263  -47.7394  -53.3280 C.3       6 UNK        -0.1801 
     42 N          30.4635  -48.1074  -55.6516 N.am      6 UNK        -0.4747 
     43 C          30.4856  -48.0293  -56.9910 C.2       6 UNK         0.5012 
     44 O          29.5736  -47.5449  -57.6631 O.2       6 UNK        -0.5003 
     45 CA         31.7035  -48.6584  -57.7020 C.3       5 UNK         0.0782 
     46 C46        32.8143  -47.6123  -57.9796 C.3       11 UNK        -0.0868 
     47 S47        33.6917  -47.0242  -56.4822 S.3       11 UNK        -0.2515 
     48 C48        33.5300  -45.2125  -56.6011 C.3       11 UNK         0.0199 
     49 N          32.2318  -49.8410  -57.0094 N.am      5 UNK        -0.4607 
     50 C          31.5330  -50.9394  -56.6899 C.2       4 UNK         0.5031 
     51 O          30.3574  -51.1098  -57.0102 O.2       4 UNK        -0.5119 
     52 CA         32.2350  -52.0218  -55.8482 C.3       4 UNK         0.0263 
     53 CB         32.5458  -53.2524  -56.7160 C.3       4 UNK        -0.1967 
     54 N          33.4638  -51.5938  -55.1676 N.am      4 UNK        -0.4237 
     55 C          33.5552  -50.6291  -54.2415 C.2       3 UNK         0.4908 
     56 O          32.6132  -49.9086  -53.9011 O.2       3 UNK        -0.5102 
     57 CA         34.9557  -50.4172  -53.6424 C.3       3 UNK         0.0241 
     58 CB         35.8550  -49.6331  -54.6129 C.3       3 UNK        -0.1971 
     59 N          34.9012  -49.6976  -52.3717 N.am      3 UNK        -0.4139 
     60 C          34.5341  -50.2263  -51.1969 C.2       2 UNK         0.5016 
     61 O          34.2640  -51.4173  -51.0337 O.2       2 UNK        -0.5319 
     62 CA         34.4781  -49.2674  -49.9932 C.3       2 UNK         0.0286 
     63 CB         35.7394  -49.4165  -49.1265 C.3       2 UNK        -0.1963 
     64 N          34.3381  -47.8631  -50.3939 N.am      2 UNK        -0.4790 
     65 C          33.1799  -47.2888  -50.7537 C.2       1 UNK         0.5024 
     66 O          32.1017  -47.8833  -50.7271 O.2       1 UNK        -0.4888 
     67 H67        36.4850  -43.7674  -50.0397 H         1 UNK         0.0892 
     68 H68        35.6459  -43.0065  -48.6890 H         1 UNK         0.0892 
     69 H69        36.5359  -44.5090  -48.4402 H         1 UNK         0.0892 
     70 H70        35.0711  -44.7832  -51.4190 H         1 UNK         0.3107 
     71 H71        33.4118  -45.9025  -52.3175 H         1 UNK         0.0773 
     72 H72        31.0778  -45.6304  -51.5006 H         1 UNK         0.0680 
     73 H73        31.6495  -44.9861  -49.9907 H         1 UNK         0.0680 
     74 H74        30.0710  -42.4200  -52.9324 H         1 UNK         0.0650 
     75 H75        29.6848  -44.0498  -52.4577 H         1 UNK         0.0650 
     76 H76        32.8149  -44.4539  -54.0953 H         1 UNK         0.1397 
     77 H77        31.2563  -44.8417  -58.0606 H         1 UNK         0.1363 
     78 H78        28.7220  -43.4356  -54.9140 H         1 UNK         0.1355 
     79 H79        28.9792  -44.4613  -58.5320 H         1 UNK         0.0707 
     80 H80        27.8809  -44.6418  -57.1826 H         1 UNK         0.0707 
     81 H81        26.9260  -41.6143  -59.6967 H         1 UNK         0.1034 
     82 H82        27.0657  -43.3492  -59.6908 H         1 UNK         0.1034 
     83 H83        25.3223  -41.7644  -57.7205 H         1 UNK         0.0482 
     84 H84        23.8666  -40.5450  -58.9375 H         1 UNK         0.3460 
     85 H85        23.0008  -41.1617  -60.3205 H         1 UNK         0.3460 
     86 H86        25.9903  -44.5354  -57.8280 H         1 UNK         0.2989 
     87 H87        24.8079  -45.4355  -55.2892 H         1 UNK         0.0559 
     88 H88        22.2774  -46.2097  -56.8317 H         1 UNK         0.0848 
     89 H89        22.3481  -45.4630  -55.2432 H         1 UNK         0.0848 
     90 H90        22.9398  -47.1007  -55.4618 H         1 UNK         0.0848 
     91 H91        25.8660  -46.9479  -56.4777 H         1 UNK         0.3144 
     92 H92        25.3089  -48.7031  -59.4490 H         1 UNK         0.0727 
     93 H93        27.4943  -46.5692  -59.1455 H         1 UNK         0.0790 
     94 H94        26.4058  -46.7354  -60.5155 H         1 UNK         0.0790 
     95 H95        27.5854  -47.9929  -60.1801 H         1 UNK         0.0790 
     96 H96        27.5474  -48.5437  -57.6384 H         1 UNK         0.3215 
     97 H97        26.1993  -50.3080  -54.9772 H         1 UNK         0.0863 
     98 H98        27.8175  -52.1889  -55.3905 H         1 UNK         0.0808 
     99 H99        27.8106  -51.8055  -57.1127 H         1 UNK         0.0808 
    100 H100       26.3436  -52.3670  -56.3288 H         1 UNK         0.0808 
    101 H101       28.9243  -49.9443  -55.7708 H         1 UNK         0.3118 
    102 H102       29.2683  -46.5432  -55.0144 H         1 UNK         0.0546 
    103 H103       29.0906  -47.2961  -52.6557 H         1 UNK         0.0828 
    104 H104       30.7749  -47.2321  -53.1559 H         1 UNK         0.0828 
    105 H105       29.9535  -48.7833  -53.0379 H         1 UNK         0.0828 
    106 H106       31.2510  -48.5449  -55.1866 H         1 UNK         0.3005 
    107 H107       31.3335  -49.0087  -58.6683 H         1 UNK         0.1257 
    108 H108       32.4090  -46.7675  -58.5371 H         1 UNK         0.0775 
    109 H109       33.5626  -48.0528  -58.6403 H         1 UNK         0.0775 
    110 H110       34.3187  -44.7558  -56.0012 H         1 UNK         0.0840 
    111 H111       33.7140  -44.8907  -57.6273 H         1 UNK         0.0840 
    112 H112       33.1841  -49.7691  -56.6837 H         1 UNK         0.2987 
    113 H113       31.5261  -52.3222  -55.0737 H         1 UNK         0.0785 
    114 H114       31.6454  -53.6204  -57.2108 H         1 UNK         0.0798 
    115 H115       32.9393  -54.0736  -56.1167 H         1 UNK         0.0798 
    116 H116       33.2741  -53.0232  -57.4950 H         1 UNK         0.0798 
    117 H117       34.2990  -52.1132  -55.3986 H         1 UNK         0.3079 
    118 H118       35.4039  -51.3976  -53.4654 H         1 UNK         0.0794 
    119 H119       35.4840  -48.6216  -54.7781 H         1 UNK         0.0786 
    120 H120       35.9169  -50.1219  -55.5861 H         1 UNK         0.0786 
    121 H121       36.8726  -49.5540  -54.2296 H         1 UNK         0.0786 
    122 H122       35.0643  -48.7034  -52.4086 H         1 UNK         0.3032 
    123 H123       33.6128  -49.5524  -49.3898 H         1 UNK         0.1094 
    124 H124       36.6431  -49.1494  -49.6757 H         1 UNK         0.0794 
    125 H125       35.6865  -48.7868  -48.2381 H         1 UNK         0.0794 
    126 H126       35.8582  -50.4459  -48.7851 H         1 UNK         0.0794 
    127 H127       35.1782  -47.3027  -50.4105 H         1 UNK         0.3016 
@<TRIPOS>BOND
     1    1    2 1    
     2    1   67 1    
     3    1   68 1    
     4    1   69 1    
     5    2    3 2    
     6    2    4 am   BACKBONE|DICT|INTERRES
     7    4    5 1    
     8    4   70 1    
     9    5    6 1    
    10    5   65 1    
    11    5   71 1    
    12    6    7 1    
    13    6   72 1    
    14    6   73 1    
    15    7    8 1    
    16    8    9 1    
    17    8   74 1    
    18    8   75 1    
    19    9   10 ar   
    20    9   14 ar   
    21   10   11 ar   
    22   10   76 1    
    23   11   12 ar   
    24   11   48 1    
    25   12   13 ar   
    26   12   77 1    
    27   13   14 ar   
    28   13   15 1    
    29   14   78 1    
    30   15   16 1    
    31   15   79 1    
    32   15   80 1    
    33   16   17 1    
    34   17   18 1    
    35   17   81 1    
    36   17   82 1    
    37   18   19 1    
    38   18   22 1    
    39   18   83 1    
    40   19   20 am   BACKBONE|DICT|INTERRES
    41   19   21 2    
    42   20   84 1    
    43   20   85 1    
    44   22   23 am   BACKBONE|DICT|INTERRES
    45   22   86 1    
    46   23   24 2    
    47   23   25 1    
    48   25   26 1    
    49   25   27 1    
    50   25   87 1    
    51   26   88 1    
    52   26   89 1    
    53   26   90 1    
    54   27   28 am   BACKBONE|DICT|INTERRES
    55   27   91 1    
    56   28   29 2    
    57   28   30 1    
    58   30   31 1    
    59   30   32 1    
    60   30   92 1    
    61   31   93 1    
    62   31   94 1    
    63   31   95 1    
    64   32   33 am   BACKBONE|DICT|INTERRES
    65   32   96 1    
    66   33   34 2    
    67   33   35 1    
    68   35   36 1    
    69   35   37 1    
    70   35   97 1    
    71   36   98 1    
    72   36   99 1    
    73   36  100 1    
    74   37   38 am   BACKBONE|DICT|INTERRES
    75   37  101 1    
    76   38   39 2    
    77   38   40 1    
    78   40   41 1    
    79   40   42 1    
    80   40  102 1    
    81   41  103 1    
    82   41  104 1    
    83   41  105 1    
    84   42   43 am   BACKBONE|DICT|INTERRES
    85   42  106 1    
    86   43   44 2    
    87   43   45 1    
    88   45   46 1    
    89   45   49 1    
    90   45  107 1    
    91   46   47 1    
    92   46  108 1    
    93   46  109 1    
    94   47   48 1    
    95   48  110 1    
    96   48  111 1    
    97   49   50 am   BACKBONE|DICT|INTERRES
    98   49  112 1    
    99   50   51 2    
   100   50   52 1    
   101   52   53 1    
   102   52   54 1    
   103   52  113 1    
   104   53  114 1    
   105   53  115 1    
   106   53  116 1    
   107   54   55 am   BACKBONE|DICT|INTERRES
   108   54  117 1    
   109   55   56 2    
   110   55   57 1    
   111   57   58 1    
   112   57   59 1    
   113   57  118 1    
   114   58  119 1    
   115   58  120 1    
   116   58  121 1    
   117   59   60 am   BACKBONE|DICT|INTERRES
   118   59  122 1    
   119   60   61 2    
   120   60   62 1    
   121   62   63 1    
   122   62   64 1    
   123   62  123 1    
   124   63  124 1    
   125   63  125 1    
   126   63  126 1    
   127   64   65 am   BACKBONE|DICT|INTERRES
   128   64  127 1    
   129   65   66 2    
@<TRIPOS>SUBSTRUCTURE
     1 UNK         1 GROUP             0       ****    0 ROOT    
