@<TRIPOS>MOLECULE
3R134
127   129    1
SMALL
USER_CHARGES


@<TRIPOS>ATOM
      1 CA         37.4483  -45.4044  -50.4186 C.3       0 UNK        -0.1968 
      2 C          37.4731  -44.8050  -51.8168 C.2       0 UNK         0.4852 
      3 O          38.3838  -45.0996  -52.5923 O.2       0 UNK        -0.5359 
      4 N          36.4815  -43.9649  -52.1418 N.am      1 UNK        -0.4300 
      5 CA         36.3078  -43.3199  -53.4497 C.3       1 UNK         0.0863 
      6 C6         35.3081  -42.1317  -53.3941 C.3       11 UNK        -0.0953 
      7 S7         33.7643  -42.4758  -52.4787 S.3       11 UNK        -0.2369 
      8 C8         32.6319  -42.9532  -53.8233 C.3       11 UNK         0.0226 
      9 C9         31.3063  -43.4828  -53.2920 C.ar      11 UNK        -0.0699 
     10 C10        31.2779  -44.5273  -52.3597 C.ar      11 UNK        -0.0804 
     11 C11        30.0624  -44.9946  -51.8515 C.ar      11 UNK        -0.0871 
     12 C12        28.8675  -44.4317  -52.3075 C.ar      11 UNK        -0.1008 
     13 C13        28.8803  -43.4185  -53.2685 C.ar      11 UNK        -0.0735 
     14 C14        30.1019  -42.9379  -53.7474 C.ar      11 UNK        -0.0945 
     15 C15        27.5674  -42.8456  -53.7751 C.3       11 UNK         0.0169 
     16 S16        26.8526  -43.8885  -55.0839 S.3       11 UNK        -0.2669 
     17 C17        27.7243  -43.2821  -56.5743 C.3       11 UNK        -0.0850 
     18 CA         28.3138  -44.4038  -57.4751 C.3       10 UNK         0.0855 
     19 C          29.6899  -44.9420  -56.9927 C.2       10 UNK         0.5543 
     20 N          29.8812  -46.2439  -56.8205 N.am      10 UNK        -0.7343 
     21 O          30.6241  -44.1628  -56.8266 O.2       10 UNK        -0.5027 
     22 N          27.3212  -45.4371  -57.8126 N.am      10 UNK        -0.4495 
     23 C          26.3901  -45.3080  -58.7658 C.2       10 UNK         0.4903 
     24 O          26.2801  -44.3097  -59.4805 O.2       10 UNK        -0.4860 
     25 CA         25.4089  -46.4850  -58.9431 C.3       9 UNK         0.0227 
     26 CB         24.6270  -46.4266  -60.2728 C.3       9 UNK        -0.1964 
     27 N          26.0399  -47.7973  -58.7676 N.am      9 UNK        -0.4231 
     28 C          27.0612  -48.3172  -59.4685 C.2       9 UNK         0.5014 
     29 O          27.5786  -47.7602  -60.4376 O.2       9 UNK        -0.5270 
     30 CA         27.6143  -49.6819  -59.0125 C.3       8 UNK         0.0284 
     31 CB         29.1318  -49.6124  -58.7640 C.3       8 UNK        -0.1977 
     32 N          26.9540  -50.1689  -57.7973 N.am      8 UNK        -0.4342 
     33 C          25.9813  -51.0909  -57.7661 C.2       8 UNK         0.5039 
     34 O          25.6139  -51.7317  -58.7513 O.2       8 UNK        -0.5547 
     35 CA         25.2636  -51.3155  -56.4208 C.3       7 UNK         0.0281 
     36 CB         25.7816  -52.5817  -55.7208 C.3       7 UNK        -0.1963 
     37 N          25.3597  -50.1664  -55.5121 N.am      7 UNK        -0.4444 
     38 C          24.7227  -49.0020  -55.7146 C.2       7 UNK         0.5104 
     39 O          23.9778  -48.7965  -56.6719 O.2       7 UNK        -0.5100 
     40 CA         25.0020  -47.8474  -54.7357 C.3       6 UNK         0.0396 
     41 CB         23.9236  -47.7956  -53.6432 C.3       6 UNK        -0.1801 
     42 N          26.3247  -47.9005  -54.1099 N.am      6 UNK        -0.4747 
     43 C          27.4923  -47.8506  -54.7664 C.2       6 UNK         0.5012 
     44 O          27.5740  -47.7716  -55.9968 O.2       6 UNK        -0.5003 
     45 CA         28.7879  -47.9470  -53.9332 C.3       5 UNK         0.0782 
     46 C46        28.5711  -47.9015  -52.3933 C.3       11 UNK        -0.0868 
     47 S47        30.1582  -47.7539  -51.5032 S.3       11 UNK        -0.2515 
     48 C48        30.0417  -46.0838  -50.7882 C.3       11 UNK         0.0199 
     49 N          29.5663  -49.1200  -54.3454 N.am      5 UNK        -0.4607 
     50 C          29.1903  -50.4020  -54.2615 C.2       4 UNK         0.5031 
     51 O          28.0575  -50.7547  -53.9291 O.2       4 UNK        -0.5119 
     52 CA         30.2458  -51.4890  -54.5528 C.3       4 UNK         0.0263 
     53 CB         30.0828  -52.0643  -55.9725 C.3       4 UNK        -0.1967 
     54 N          31.6485  -51.1162  -54.2917 N.am      4 UNK        -0.4237 
     55 C          32.4005  -50.2046  -54.9250 C.2       3 UNK         0.4908 
     56 O          31.9785  -49.4694  -55.8221 O.2       3 UNK        -0.5102 
     57 CA         33.8709  -50.1086  -54.4856 C.3       3 UNK         0.0241 
     58 CB         34.6789  -51.2945  -55.0407 C.3       3 UNK        -0.1971 
     59 N          34.4514  -48.8668  -54.9941 N.am      3 UNK        -0.4139 
     60 C          34.4894  -47.7124  -54.3222 C.2       2 UNK         0.5016 
     61 O          34.2163  -47.5901  -53.1242 O.2       2 UNK        -0.5319 
     62 CA         34.8580  -46.4769  -55.1490 C.3       2 UNK         0.0286 
     63 CB         33.6571  -46.0330  -56.0102 C.3       2 UNK        -0.1963 
     64 N          35.2612  -45.4083  -54.2400 N.am      2 UNK        -0.4790 
     65 C          35.9518  -44.3126  -54.5778 C.2       1 UNK         0.5024 
     66 O          36.3142  -44.0668  -55.7294 O.2       1 UNK        -0.4888 
     67 H67        38.3614  -45.1459  -49.8830 H         1 UNK         0.0892 
     68 H68        37.3830  -46.4905  -50.4780 H         1 UNK         0.0892 
     69 H69        36.6003  -45.0455  -49.8355 H         1 UNK         0.0892 
     70 H70        35.7606  -43.7538  -51.4654 H         1 UNK         0.3107 
     71 H71        37.2793  -42.9021  -53.7239 H         1 UNK         0.0773 
     72 H72        35.0718  -41.7604  -54.3936 H         1 UNK         0.0680 
     73 H73        35.7903  -41.2948  -52.8869 H         1 UNK         0.0680 
     74 H74        32.4741  -42.0891  -54.4705 H         1 UNK         0.0650 
     75 H75        33.0901  -43.7206  -54.4420 H         1 UNK         0.0650 
     76 H76        32.2052  -44.9641  -52.0144 H         1 UNK         0.1397 
     77 H77        27.9209  -44.7816  -51.9198 H         1 UNK         0.1363 
     78 H78        30.1153  -42.1463  -54.4836 H         1 UNK         0.1355 
     79 H79        27.6978  -41.8240  -54.1355 H         1 UNK         0.0707 
     80 H80        26.8557  -42.7850  -52.9503 H         1 UNK         0.0707 
     81 H81        28.4995  -42.5661  -56.2977 H         1 UNK         0.1034 
     82 H82        27.0025  -42.7054  -57.1542 H         1 UNK         0.1034 
     83 H83        28.5809  -43.9218  -58.4177 H         1 UNK         0.0482 
     84 H84        30.7976  -46.5673  -56.5595 H         1 UNK         0.3460 
     85 H85        29.1174  -46.9002  -56.8978 H         1 UNK         0.3460 
     86 H86        27.3379  -46.2752  -57.2414 H         1 UNK         0.2989 
     87 H87        24.6835  -46.3915  -58.1338 H         1 UNK         0.0559 
     88 H88        25.2926  -46.4592  -61.1360 H         1 UNK         0.0848 
     89 H89        24.0462  -45.5063  -60.3456 H         1 UNK         0.0848 
     90 H90        23.9260  -47.2569  -60.3575 H         1 UNK         0.0848 
     91 H91        25.6584  -48.3516  -58.0119 H         1 UNK         0.3144 
     92 H92        27.4444  -50.3737  -59.8399 H         1 UNK         0.0727 
     93 H93        29.5508  -50.6135  -58.6795 H         1 UNK         0.0790 
     94 H94        29.3753  -49.0621  -57.8544 H         1 UNK         0.0790 
     95 H95        29.6538  -49.1267  -59.5895 H         1 UNK         0.0790 
     96 H96        27.1787  -49.6698  -56.9439 H         1 UNK         0.3215 
     97 H97        24.2065  -51.4729  -56.6474 H         1 UNK         0.0863 
     98 H98        25.2247  -52.7851  -54.8060 H         1 UNK         0.0808 
     99 H99        26.8352  -52.5013  -55.4594 H         1 UNK         0.0808 
    100 H100       25.6734  -53.4547  -56.3659 H         1 UNK         0.0808 
    101 H101       25.9976  -50.2510  -54.7284 H         1 UNK         0.3118 
    102 H102       24.9511  -46.9180  -55.3074 H         1 UNK         0.0546 
    103 H103       22.9269  -47.7281  -54.0820 H         1 UNK         0.0828 
    104 H104       24.0505  -46.9243  -53.0005 H         1 UNK         0.0828 
    105 H105       23.9422  -48.6858  -53.0133 H         1 UNK         0.0828 
    106 H106       26.3409  -48.0020  -53.1056 H         1 UNK         0.3005 
    107 H107       29.3730  -47.0670  -54.2065 H         1 UNK         0.1257 
    108 H108       28.0710  -48.8044  -52.0388 H         1 UNK         0.0775 
    109 H109       27.9262  -47.0711  -52.1081 H         1 UNK         0.0775 
    110 H110       29.1394  -46.0104  -50.1789 H         1 UNK         0.0840 
    111 H111       30.8781  -45.9385  -50.1028 H         1 UNK         0.0840 
    112 H112       30.4897  -48.9380  -54.7251 H         1 UNK         0.2987 
    113 H113       30.0271  -52.2977  -53.8536 H         1 UNK         0.0785 
    114 H114       29.0480  -52.3374  -56.1781 H         1 UNK         0.0798 
    115 H115       30.6863  -52.9622  -56.1044 H         1 UNK         0.0798 
    116 H116       30.3863  -51.3484  -56.7331 H         1 UNK         0.0798 
    117 H117       32.0867  -51.6372  -53.5442 H         1 UNK         0.3079 
    118 H118       33.9151  -50.1261  -53.3943 H         1 UNK         0.0794 
    119 H119       34.6311  -51.3429  -56.1296 H         1 UNK         0.0786 
    120 H120       34.3037  -52.2437  -54.6561 H         1 UNK         0.0786 
    121 H121       35.7289  -51.2252  -54.7552 H         1 UNK         0.0786 
    122 H122       34.6308  -48.8477  -55.9880 H         1 UNK         0.3032 
    123 H123       35.7041  -46.7274  -55.7933 H         1 UNK         0.1094 
    124 H124       33.8749  -45.1288  -56.5785 H         1 UNK         0.0794 
    125 H125       33.3846  -46.8046  -56.7314 H         1 UNK         0.0794 
    126 H126       32.7746  -45.8395  -55.3989 H         1 UNK         0.0794 
    127 H127       35.0238  -45.5778  -53.2699 H         1 UNK         0.3016 
@<TRIPOS>BOND
     1    1    2 1    
     2    1   67 1    
     3    1   68 1    
     4    1   69 1    
     5    2    3 2    
     6    2    4 am   BACKBONE|DICT|INTERRES
     7    4    5 1    
     8    4   70 1    
     9    5    6 1    
    10    5   65 1    
    11    5   71 1    
    12    6    7 1    
    13    6   72 1    
    14    6   73 1    
    15    7    8 1    
    16    8    9 1    
    17    8   74 1    
    18    8   75 1    
    19    9   10 ar   
    20    9   14 ar   
    21   10   11 ar   
    22   10   76 1    
    23   11   12 ar   
    24   11   48 1    
    25   12   13 ar   
    26   12   77 1    
    27   13   14 ar   
    28   13   15 1    
    29   14   78 1    
    30   15   16 1    
    31   15   79 1    
    32   15   80 1    
    33   16   17 1    
    34   17   18 1    
    35   17   81 1    
    36   17   82 1    
    37   18   19 1    
    38   18   22 1    
    39   18   83 1    
    40   19   20 am   BACKBONE|DICT|INTERRES
    41   19   21 2    
    42   20   84 1    
    43   20   85 1    
    44   22   23 am   BACKBONE|DICT|INTERRES
    45   22   86 1    
    46   23   24 2    
    47   23   25 1    
    48   25   26 1    
    49   25   27 1    
    50   25   87 1    
    51   26   88 1    
    52   26   89 1    
    53   26   90 1    
    54   27   28 am   BACKBONE|DICT|INTERRES
    55   27   91 1    
    56   28   29 2    
    57   28   30 1    
    58   30   31 1    
    59   30   32 1    
    60   30   92 1    
    61   31   93 1    
    62   31   94 1    
    63   31   95 1    
    64   32   33 am   BACKBONE|DICT|INTERRES
    65   32   96 1    
    66   33   34 2    
    67   33   35 1    
    68   35   36 1    
    69   35   37 1    
    70   35   97 1    
    71   36   98 1    
    72   36   99 1    
    73   36  100 1    
    74   37   38 am   BACKBONE|DICT|INTERRES
    75   37  101 1    
    76   38   39 2    
    77   38   40 1    
    78   40   41 1    
    79   40   42 1    
    80   40  102 1    
    81   41  103 1    
    82   41  104 1    
    83   41  105 1    
    84   42   43 am   BACKBONE|DICT|INTERRES
    85   42  106 1    
    86   43   44 2    
    87   43   45 1    
    88   45   46 1    
    89   45   49 1    
    90   45  107 1    
    91   46   47 1    
    92   46  108 1    
    93   46  109 1    
    94   47   48 1    
    95   48  110 1    
    96   48  111 1    
    97   49   50 am   BACKBONE|DICT|INTERRES
    98   49  112 1    
    99   50   51 2    
   100   50   52 1    
   101   52   53 1    
   102   52   54 1    
   103   52  113 1    
   104   53  114 1    
   105   53  115 1    
   106   53  116 1    
   107   54   55 am   BACKBONE|DICT|INTERRES
   108   54  117 1    
   109   55   56 2    
   110   55   57 1    
   111   57   58 1    
   112   57   59 1    
   113   57  118 1    
   114   58  119 1    
   115   58  120 1    
   116   58  121 1    
   117   59   60 am   BACKBONE|DICT|INTERRES
   118   59  122 1    
   119   60   61 2    
   120   60   62 1    
   121   62   63 1    
   122   62   64 1    
   123   62  123 1    
   124   63  124 1    
   125   63  125 1    
   126   63  126 1    
   127   64   65 am   BACKBONE|DICT|INTERRES
   128   64  127 1    
   129   65   66 2    
@<TRIPOS>SUBSTRUCTURE
     1 UNK         1 GROUP             0       ****    0 ROOT    
