@<TRIPOS>MOLECULE
3R134
127   129    1
SMALL
USER_CHARGES


@<TRIPOS>ATOM
      1 CA         36.3194  -44.5551  -49.0348 C.3       0 UNK        -0.1968 
      2 C          36.4173  -45.2528  -50.3835 C.2       0 UNK         0.4852 
      3 O          37.5062  -45.6721  -50.7776 O.2       0 UNK        -0.5359 
      4 N          35.2868  -45.3866  -51.0899 N.am      1 UNK        -0.4300 
      5 CA         35.1852  -46.0178  -52.4127 C.3       1 UNK         0.0863 
      6 C6         34.0351  -45.4039  -53.2487 C.3       11 UNK        -0.0953 
      7 S7         32.3735  -45.5193  -52.4862 S.3       11 UNK        -0.2369 
      8 C8         31.7388  -43.8136  -52.6740 C.3       11 UNK         0.0226 
      9 C9         31.1235  -43.5565  -54.0478 C.ar      11 UNK        -0.0699 
     10 C10        31.9073  -43.6470  -55.1997 C.ar      11 UNK        -0.0804 
     11 C11        31.3521  -43.4624  -56.4659 C.ar      11 UNK        -0.0871 
     12 C12        30.0021  -43.1203  -56.5782 C.ar      11 UNK        -0.1008 
     13 C13        29.2084  -42.9723  -55.4342 C.ar      11 UNK        -0.0735 
     14 C14        29.7747  -43.2022  -54.1730 C.ar      11 UNK        -0.0945 
     15 C15        27.7578  -42.5187  -55.5717 C.3       11 UNK         0.0169 
     16 S16        26.5819  -43.6067  -54.7036 S.3       11 UNK        -0.2669 
     17 C17        24.9924  -43.0823  -55.4322 C.3       11 UNK        -0.0850 
     18 CA         24.3896  -44.1455  -56.3911 C.3       10 UNK         0.0855 
     19 C          22.9608  -43.7251  -56.8463 C.2       10 UNK         0.5543 
     20 N          22.7166  -43.4646  -58.1250 N.am      10 UNK        -0.7343 
     21 O          22.0565  -43.6343  -56.0197 O.2       10 UNK        -0.5027 
     22 N          25.3178  -44.4840  -57.4846 N.am      10 UNK        -0.4495 
     23 C          25.2495  -45.5819  -58.2490 C.2       10 UNK         0.4903 
     24 O          24.3601  -46.4284  -58.1487 O.2       10 UNK        -0.4860 
     25 CA         26.3390  -45.7575  -59.3241 C.3       9 UNK         0.0227 
     26 CB         27.4192  -44.6538  -59.3153 C.3       9 UNK        -0.1964 
     27 N          26.9934  -47.0518  -59.1474 N.am      9 UNK        -0.4231 
     28 C          26.7175  -48.1704  -59.8293 C.2       9 UNK         0.5014 
     29 O          25.8896  -48.2405  -60.7395 O.2       9 UNK        -0.5270 
     30 CA         27.5149  -49.4285  -59.4410 C.3       8 UNK         0.0284 
     31 CB         28.9303  -49.3843  -60.0403 C.3       8 UNK        -0.1977 
     32 N          27.5976  -49.6246  -57.9914 N.am      8 UNK        -0.4342 
     33 C          26.5662  -49.9944  -57.2181 C.2       8 UNK         0.5039 
     34 O          25.4451  -50.2628  -57.6521 O.2       8 UNK        -0.5547 
     35 CA         26.8252  -50.0958  -55.7053 C.3       7 UNK         0.0281 
     36 CB         27.4077  -51.4720  -55.3445 C.3       7 UNK        -0.1963 
     37 N          27.7177  -49.0454  -55.2162 N.am      7 UNK        -0.4444 
     38 C          27.3911  -47.7498  -55.1208 C.2       7 UNK         0.5104 
     39 O          26.2647  -47.3109  -55.3469 O.2       7 UNK        -0.5100 
     40 CA         28.5196  -46.7779  -54.7308 C.3       6 UNK         0.0396 
     41 CB         28.6386  -46.6569  -53.2043 C.3       6 UNK        -0.1801 
     42 N          29.8170  -47.1288  -55.3153 N.am      6 UNK        -0.4747 
     43 C          30.0640  -47.1165  -56.6342 C.2       6 UNK         0.5012 
     44 O          29.2179  -46.8213  -57.4765 O.2       6 UNK        -0.5003 
     45 CA         31.4554  -47.5876  -57.1073 C.3       5 UNK         0.0782 
     46 C46        32.4838  -46.4368  -57.2219 C.3       11 UNK        -0.0868 
     47 S47        32.0405  -45.2278  -58.5242 S.3       11 UNK        -0.2515 
     48 C48        32.2309  -43.6108  -57.7012 C.3       11 UNK         0.0199 
     49 N          31.9524  -48.7002  -56.2908 N.am      5 UNK        -0.4607 
     50 C          31.4160  -49.9281  -56.3234 C.2       4 UNK         0.5031 
     51 O          30.4739  -50.2418  -57.0526 O.2       4 UNK        -0.5119 
     52 CA         32.0008  -50.9666  -55.3529 C.3       4 UNK         0.0263 
     53 CB         33.3980  -51.4185  -55.8078 C.3       4 UNK        -0.1967 
     54 N          32.0635  -50.5103  -53.9607 N.am      4 UNK        -0.4237 
     55 C          31.0260  -50.0830  -53.2292 C.2       3 UNK         0.4908 
     56 O          29.8917  -49.9534  -53.6842 O.2       3 UNK        -0.5102 
     57 CA         31.2548  -49.7276  -51.7468 C.3       3 UNK         0.0241 
     58 CB         30.6470  -50.8073  -50.8301 C.3       3 UNK        -0.1971 
     59 N          32.6388  -49.4229  -51.3561 N.am      3 UNK        -0.4139 
     60 C          33.7159  -50.2227  -51.3475 C.2       2 UNK         0.5016 
     61 O          33.7034  -51.3936  -51.7291 O.2       2 UNK        -0.5319 
     62 CA         35.0322  -49.5848  -50.8596 C.3       2 UNK         0.0286 
     63 CB         36.2831  -50.3300  -51.3736 C.3       2 UNK        -0.1963 
     64 N          35.1225  -48.1465  -51.1553 N.am      2 UNK        -0.4790 
     65 C          35.1099  -47.5614  -52.3653 C.2       1 UNK         0.5024 
     66 O          35.0210  -48.1881  -53.4227 O.2       1 UNK        -0.4888 
     67 H67        36.6520  -45.2234  -48.2409 H         1 UNK         0.0892 
     68 H68        35.3001  -44.2420  -48.8098 H         1 UNK         0.0892 
     69 H69        36.9553  -43.6703  -49.0240 H         1 UNK         0.0892 
     70 H70        34.4179  -45.0289  -50.7173 H         1 UNK         0.3107 
     71 H71        36.1085  -45.7985  -52.9539 H         1 UNK         0.0773 
     72 H72        33.9944  -45.8589  -54.2397 H         1 UNK         0.0680 
     73 H73        34.2764  -44.3542  -53.4172 H         1 UNK         0.0680 
     74 H74        30.9929  -43.6487  -51.8951 H         1 UNK         0.0650 
     75 H75        32.5347  -43.0922  -52.4854 H         1 UNK         0.0650 
     76 H76        32.9566  -43.8802  -55.1231 H         1 UNK         0.1397 
     77 H77        29.5785  -42.9535  -57.5589 H         1 UNK         0.1363 
     78 H78        29.1615  -43.0984  -53.2884 H         1 UNK         0.1355 
     79 H79        27.4799  -42.4657  -56.6250 H         1 UNK         0.0707 
     80 H80        27.6639  -41.5066  -55.1760 H         1 UNK         0.0707 
     81 H81        25.1123  -42.1253  -55.9434 H         1 UNK         0.1034 
     82 H82        24.3080  -42.8914  -54.6032 H         1 UNK         0.1034 
     83 H83        24.2517  -45.0591  -55.8089 H         1 UNK         0.0482 
     84 H84        21.7869  -43.1959  -58.4069 H         1 UNK         0.3460 
     85 H85        23.4503  -43.5434  -58.8102 H         1 UNK         0.3460 
     86 H86        26.0798  -43.8418  -57.6322 H         1 UNK         0.2989 
     87 H87        25.8388  -45.7224  -60.2937 H         1 UNK         0.0559 
     88 H88        26.9913  -43.6716  -59.5194 H         1 UNK         0.0848 
     89 H89        28.1685  -44.8369  -60.0858 H         1 UNK         0.0848 
     90 H90        27.9443  -44.6053  -58.3605 H         1 UNK         0.0848 
     91 H91        27.7157  -47.0856  -58.4284 H         1 UNK         0.3144 
     92 H92        26.9995  -50.2926  -59.8660 H         1 UNK         0.0727 
     93 H93        29.4890  -50.2912  -59.8076 H         1 UNK         0.0790 
     94 H94        29.5019  -48.5340  -59.6683 H         1 UNK         0.0790 
     95 H95        28.8894  -49.2977  -61.1269 H         1 UNK         0.0790 
     96 H96        28.5033  -49.4865  -57.5571 H         1 UNK         0.3215 
     97 H97        25.8651  -49.9878  -55.1961 H         1 UNK         0.0863 
     98 H98        27.5250  -51.5814  -54.2661 H         1 UNK         0.0808 
     99 H99        28.3847  -51.6300  -55.8030 H         1 UNK         0.0808 
    100 H100       26.7523  -52.2751  -55.6838 H         1 UNK         0.0808 
    101 H101       28.6426  -49.3351  -54.9033 H         1 UNK         0.3118 
    102 H102       28.2569  -45.7989  -55.1293 H         1 UNK         0.0546 
    103 H103       27.6939  -46.3263  -52.7709 H         1 UNK         0.0828 
    104 H104       29.3940  -45.9254  -52.9211 H         1 UNK         0.0828 
    105 H105       28.8945  -47.6082  -52.7393 H         1 UNK         0.0828 
    106 H106       30.5456  -47.4206  -54.6817 H         1 UNK         0.3005 
    107 H107       31.3146  -47.9826  -58.1163 H         1 UNK         0.1257 
    108 H108       33.4612  -46.8438  -57.4855 H         1 UNK         0.0775 
    109 H109       32.6190  -45.9519  -56.2581 H         1 UNK         0.0775 
    110 H110       33.2816  -43.4657  -57.4449 H         1 UNK         0.0840 
    111 H111       31.9860  -42.8238  -58.4160 H         1 UNK         0.0840 
    112 H112       32.7179  -48.5129  -55.6591 H         1 UNK         0.2987 
    113 H113       31.3404  -51.8359  -55.3755 H         1 UNK         0.0785 
    114 H114       34.1278  -50.6104  -55.7420 H         1 UNK         0.0798 
    115 H115       33.3809  -51.7619  -56.8432 H         1 UNK         0.0798 
    116 H116       33.7626  -52.2466  -55.1994 H         1 UNK         0.0798 
    117 H117       32.9390  -50.6534  -53.4701 H         1 UNK         0.3079 
    118 H118       30.6998  -48.8045  -51.5738 H         1 UNK         0.0794 
    119 H119       31.1396  -51.7721  -50.9551 H         1 UNK         0.0786 
    120 H120       29.5886  -50.9546  -51.0500 H         1 UNK         0.0786 
    121 H121       30.7222  -50.5250  -49.7800 H         1 UNK         0.0786 
    122 H122       32.7930  -48.4672  -51.0658 H         1 UNK         0.3032 
    123 H123       35.0201  -49.6774  -49.7721 H         1 UNK         0.1094 
    124 H124       36.2899  -51.3658  -51.0315 H         1 UNK         0.0794 
    125 H125       36.3260  -50.3493  -52.4631 H         1 UNK         0.0794 
    126 H126       37.1993  -49.8650  -51.0098 H         1 UNK         0.0794 
    127 H127       35.1994  -47.5374  -50.3525 H         1 UNK         0.3016 
@<TRIPOS>BOND
     1    1    2 1    
     2    1   67 1    
     3    1   68 1    
     4    1   69 1    
     5    2    3 2    
     6    2    4 am   BACKBONE|DICT|INTERRES
     7    4    5 1    
     8    4   70 1    
     9    5    6 1    
    10    5   65 1    
    11    5   71 1    
    12    6    7 1    
    13    6   72 1    
    14    6   73 1    
    15    7    8 1    
    16    8    9 1    
    17    8   74 1    
    18    8   75 1    
    19    9   10 ar   
    20    9   14 ar   
    21   10   11 ar   
    22   10   76 1    
    23   11   12 ar   
    24   11   48 1    
    25   12   13 ar   
    26   12   77 1    
    27   13   14 ar   
    28   13   15 1    
    29   14   78 1    
    30   15   16 1    
    31   15   79 1    
    32   15   80 1    
    33   16   17 1    
    34   17   18 1    
    35   17   81 1    
    36   17   82 1    
    37   18   19 1    
    38   18   22 1    
    39   18   83 1    
    40   19   20 am   BACKBONE|DICT|INTERRES
    41   19   21 2    
    42   20   84 1    
    43   20   85 1    
    44   22   23 am   BACKBONE|DICT|INTERRES
    45   22   86 1    
    46   23   24 2    
    47   23   25 1    
    48   25   26 1    
    49   25   27 1    
    50   25   87 1    
    51   26   88 1    
    52   26   89 1    
    53   26   90 1    
    54   27   28 am   BACKBONE|DICT|INTERRES
    55   27   91 1    
    56   28   29 2    
    57   28   30 1    
    58   30   31 1    
    59   30   32 1    
    60   30   92 1    
    61   31   93 1    
    62   31   94 1    
    63   31   95 1    
    64   32   33 am   BACKBONE|DICT|INTERRES
    65   32   96 1    
    66   33   34 2    
    67   33   35 1    
    68   35   36 1    
    69   35   37 1    
    70   35   97 1    
    71   36   98 1    
    72   36   99 1    
    73   36  100 1    
    74   37   38 am   BACKBONE|DICT|INTERRES
    75   37  101 1    
    76   38   39 2    
    77   38   40 1    
    78   40   41 1    
    79   40   42 1    
    80   40  102 1    
    81   41  103 1    
    82   41  104 1    
    83   41  105 1    
    84   42   43 am   BACKBONE|DICT|INTERRES
    85   42  106 1    
    86   43   44 2    
    87   43   45 1    
    88   45   46 1    
    89   45   49 1    
    90   45  107 1    
    91   46   47 1    
    92   46  108 1    
    93   46  109 1    
    94   47   48 1    
    95   48  110 1    
    96   48  111 1    
    97   49   50 am   BACKBONE|DICT|INTERRES
    98   49  112 1    
    99   50   51 2    
   100   50   52 1    
   101   52   53 1    
   102   52   54 1    
   103   52  113 1    
   104   53  114 1    
   105   53  115 1    
   106   53  116 1    
   107   54   55 am   BACKBONE|DICT|INTERRES
   108   54  117 1    
   109   55   56 2    
   110   55   57 1    
   111   57   58 1    
   112   57   59 1    
   113   57  118 1    
   114   58  119 1    
   115   58  120 1    
   116   58  121 1    
   117   59   60 am   BACKBONE|DICT|INTERRES
   118   59  122 1    
   119   60   61 2    
   120   60   62 1    
   121   62   63 1    
   122   62   64 1    
   123   62  123 1    
   124   63  124 1    
   125   63  125 1    
   126   63  126 1    
   127   64   65 am   BACKBONE|DICT|INTERRES
   128   64  127 1    
   129   65   66 2    
@<TRIPOS>SUBSTRUCTURE
     1 UNK         1 GROUP             0       ****    0 ROOT    
