@<TRIPOS>MOLECULE
3R134
127   129    1
SMALL
USER_CHARGES


@<TRIPOS>ATOM
      1 CA         38.4252  -41.7718  -50.3953 C.3       0 UNK        -0.1968 
      2 C          37.8988  -42.5197  -51.6118 C.2       0 UNK         0.4852 
      3 O          38.6844  -42.8995  -52.4820 O.2       0 UNK        -0.5359 
      4 N          36.5770  -42.7262  -51.6818 N.am      1 UNK        -0.4300 
      5 CA         35.9021  -43.4850  -52.7401 C.3       1 UNK         0.0863 
      6 C6         34.3844  -43.1501  -52.7908 C.3       11 UNK        -0.0953 
      7 S7         33.7473  -42.9838  -54.4942 S.3       11 UNK        -0.2369 
      8 C8         32.8498  -44.5445  -54.7653 C.3       11 UNK         0.0226 
      9 C9         31.5184  -44.6015  -54.0279 C.ar      11 UNK        -0.0699 
     10 C10        31.4348  -45.1822  -52.7594 C.ar      11 UNK        -0.0804 
     11 C11        30.2104  -45.2689  -52.0919 C.ar      11 UNK        -0.0871 
     12 C12        29.0580  -44.7695  -52.7030 C.ar      11 UNK        -0.1008 
     13 C13        29.1226  -44.2093  -53.9818 C.ar      11 UNK        -0.0735 
     14 C14        30.3568  -44.1141  -54.6337 C.ar      11 UNK        -0.0945 
     15 C15        27.8524  -43.7238  -54.6625 C.3       11 UNK         0.0169 
     16 S16        26.7877  -45.1082  -55.1853 S.3       11 UNK        -0.2669 
     17 C17        27.8035  -45.9099  -56.4753 C.3       11 UNK        -0.0850 
     18 CA         27.6474  -45.2345  -57.8616 C.3       10 UNK         0.0855 
     19 C          28.6624  -45.8072  -58.8897 C.2       10 UNK         0.5543 
     20 N          29.9314  -45.4399  -58.7702 N.am      10 UNK        -0.7343 
     21 O          28.3269  -46.5903  -59.7750 O.2       10 UNK        -0.5027 
     22 N          26.2549  -45.2880  -58.3299 N.am      10 UNK        -0.4495 
     23 C          25.7391  -44.4967  -59.2797 C.2       10 UNK         0.4903 
     24 O          26.3809  -43.6125  -59.8505 O.2       10 UNK        -0.4860 
     25 CA         24.2447  -44.6917  -59.6171 C.3       9 UNK         0.0227 
     26 CB         23.8645  -44.1452  -61.0109 C.3       9 UNK        -0.1964 
     27 N          23.7780  -46.0730  -59.4402 N.am      9 UNK        -0.4231 
     28 C          24.1831  -47.1560  -60.1182 C.2       9 UNK         0.5014 
     29 O          24.9751  -47.1391  -61.0627 O.2       9 UNK        -0.5270 
     30 CA         23.6094  -48.5007  -59.6437 C.3       8 UNK         0.0284 
     31 CB         22.7978  -49.1831  -60.7580 C.3       8 UNK        -0.1977 
     32 N          24.6807  -49.3934  -59.2002 N.am      8 UNK        -0.4342 
     33 C          25.4530  -49.1780  -58.1275 C.2       8 UNK         0.5039 
     34 O          25.3205  -48.2124  -57.3704 O.2       8 UNK        -0.5547 
     35 CA         26.5749  -50.2013  -57.8863 C.3       7 UNK         0.0281 
     36 CB         27.8711  -49.7580  -58.5812 C.3       7 UNK        -0.1963 
     37 N          26.8332  -50.4064  -56.4591 N.am      7 UNK        -0.4444 
     38 C          26.0235  -51.1027  -55.6473 C.2       7 UNK         0.5104 
     39 O          24.9816  -51.6380  -56.0305 O.2       7 UNK        -0.5100 
     40 CA         26.4414  -51.2860  -54.1748 C.3       6 UNK         0.0396 
     41 CB         26.8567  -52.7440  -53.9158 C.3       6 UNK        -0.1801 
     42 N          27.5342  -50.4086  -53.7538 N.am      6 UNK        -0.4747 
     43 C          27.3924  -49.1306  -53.3768 C.2       6 UNK         0.5012 
     44 O          26.3057  -48.5560  -53.3110 O.2       6 UNK        -0.5003 
     45 CA         28.6792  -48.3709  -52.9855 C.3       5 UNK         0.0782 
     46 C46        28.8064  -48.3206  -51.4377 C.3       11 UNK        -0.0868 
     47 S47        30.4129  -47.7120  -50.8123 S.3       11 UNK        -0.2515 
     48 C48        30.1406  -45.9149  -50.7171 C.3       11 UNK         0.0199 
     49 N          29.9066  -48.8644  -53.6264 N.am      5 UNK        -0.4607 
     50 C          30.1321  -48.9640  -54.9430 C.2       4 UNK         0.5031 
     51 O          29.2541  -48.8198  -55.7909 O.2       4 UNK        -0.5119 
     52 CA         31.5694  -49.2568  -55.4042 C.3       4 UNK         0.0263 
     53 CB         32.0347  -48.1877  -56.4093 C.3       4 UNK        -0.1967 
     54 N          32.5208  -49.2876  -54.2915 N.am      4 UNK        -0.4237 
     55 C          33.0162  -50.3794  -53.6991 C.2       3 UNK         0.4908 
     56 O          32.6940  -51.5270  -54.0109 O.2       3 UNK        -0.5102 
     57 CA         34.0572  -50.1380  -52.5800 C.3       3 UNK         0.0241 
     58 CB         34.6537  -51.4488  -52.0330 C.3       3 UNK        -0.1971 
     59 N          35.1554  -49.2550  -53.0013 N.am      3 UNK        -0.4139 
     60 C          35.0551  -47.9300  -53.1721 C.2       2 UNK         0.5016 
     61 O          34.0095  -47.3115  -52.9671 O.2       2 UNK        -0.5319 
     62 CA         36.2921  -47.1989  -53.7301 C.3       2 UNK         0.0286 
     63 CB         36.5431  -47.6101  -55.1920 C.3       2 UNK        -0.1963 
     64 N          36.1552  -45.7381  -53.6829 N.am      2 UNK        -0.4790 
     65 C          36.1542  -45.0003  -52.5654 C.2       1 UNK         0.5024 
     66 O          36.3305  -45.4702  -51.4374 O.2       1 UNK        -0.4888 
     67 H67        39.1262  -42.3984  -49.8447 H         1 UNK         0.0892 
     68 H68        37.6239  -41.4820  -49.7157 H         1 UNK         0.0892 
     69 H69        38.9478  -40.8680  -50.7075 H         1 UNK         0.0892 
     70 H70        35.9895  -42.4234  -50.9183 H         1 UNK         0.3107 
     71 H71        36.3619  -43.1782  -53.6826 H         1 UNK         0.0773 
     72 H72        33.7897  -43.8595  -52.2162 H         1 UNK         0.0680 
     73 H73        34.1961  -42.1837  -52.3203 H         1 UNK         0.0680 
     74 H74        32.6743  -44.6558  -55.8362 H         1 UNK         0.0650 
     75 H75        33.4821  -45.3828  -54.4833 H         1 UNK         0.0650 
     76 H76        32.3206  -45.5847  -52.2897 H         1 UNK         0.1397 
     77 H77        28.1032  -44.8427  -52.1999 H         1 UNK         0.1363 
     78 H78        30.4127  -43.6752  -55.6201 H         1 UNK         0.1355 
     79 H79        28.0850  -43.0976  -55.5249 H         1 UNK         0.0707 
     80 H80        27.2935  -43.0927  -53.9701 H         1 UNK         0.0707 
     81 H81        27.5042  -46.9574  -56.5342 H         1 UNK         0.1034 
     82 H82        28.8458  -45.9273  -56.1550 H         1 UNK         0.1034 
     83 H83        27.8994  -44.1791  -57.7412 H         1 UNK         0.0482 
     84 H84        30.6054  -45.8056  -59.4240 H         1 UNK         0.3460 
     85 H85        30.2254  -44.7881  -58.0616 H         1 UNK         0.3460 
     86 H86        25.6892  -46.0316  -57.9396 H         1 UNK         0.2989 
     87 H87        23.6993  -44.1001  -58.8805 H         1 UNK         0.0559 
     88 H88        24.4317  -44.6301  -61.8059 H         1 UNK         0.0848 
     89 H89        24.0644  -43.0752  -61.0792 H         1 UNK         0.0848 
     90 H90        22.8043  -44.2880  -61.2190 H         1 UNK         0.0848 
     91 H91        23.1381  -46.2151  -58.6700 H         1 UNK         0.3144 
     92 H92        22.9421  -48.3297  -58.7959 H         1 UNK         0.0727 
     93 H93        22.3497  -50.1144  -60.4106 H         1 UNK         0.0790 
     94 H94        23.4151  -49.4106  -61.6282 H         1 UNK         0.0790 
     95 H95        21.9845  -48.5395  -61.0959 H         1 UNK         0.0790 
     96 H96        24.8820  -50.1838  -59.7955 H         1 UNK         0.3215 
     97 H97        26.2716  -51.1592  -58.3150 H         1 UNK         0.0863 
     98 H98        28.6693  -50.4871  -58.4420 H         1 UNK         0.0808 
     99 H99        28.2228  -48.8008  -58.1972 H         1 UNK         0.0808 
    100 H100       27.7211  -49.6374  -59.6548 H         1 UNK         0.0808 
    101 H101       27.6417  -49.9292  -56.0707 H         1 UNK         0.3118 
    102 H102       25.5639  -51.0730  -53.5606 H         1 UNK         0.0546 
    103 H103       26.0519  -53.4327  -54.1770 H         1 UNK         0.0828 
    104 H104       27.0915  -52.9099  -52.8643 H         1 UNK         0.0828 
    105 H105       27.7300  -53.0265  -54.5050 H         1 UNK         0.0828 
    106 H106       28.4679  -50.7928  -53.7837 H         1 UNK         0.3005 
    107 H107       28.5417  -47.3529  -53.3527 H         1 UNK         0.1257 
    108 H108       28.6759  -49.3202  -51.0179 H         1 UNK         0.0775 
    109 H109       28.0048  -47.7140  -51.0120 H         1 UNK         0.0775 
    110 H110       29.1872  -45.7082  -50.2284 H         1 UNK         0.0840 
    111 H111       30.9103  -45.4770  -50.0799 H         1 UNK         0.0840 
    112 H112       30.6901  -48.9912  -53.0025 H         1 UNK         0.2987 
    113 H113       31.5567  -50.2235  -55.9117 H         1 UNK         0.0785 
    114 H114       32.0186  -47.1901  -55.9695 H         1 UNK         0.0798 
    115 H115       31.3886  -48.1654  -57.2884 H         1 UNK         0.0798 
    116 H116       33.0482  -48.3849  -56.7587 H         1 UNK         0.0798 
    117 H117       32.8499  -48.3891  -53.9411 H         1 UNK         0.3079 
    118 H118       33.5252  -49.6526  -51.7584 H         1 UNK         0.0794 
    119 H119       35.1978  -51.9972  -52.8031 H         1 UNK         0.0786 
    120 H120       33.8711  -52.1076  -51.6538 H         1 UNK         0.0786 
    121 H121       35.3396  -51.2588  -51.2072 H         1 UNK         0.0786 
    122 H122       36.0292  -49.7081  -53.2278 H         1 UNK         0.3032 
    123 H123       37.1549  -47.4835  -53.1234 H         1 UNK         0.1094 
    124 H124       37.4217  -47.1094  -55.5998 H         1 UNK         0.0794 
    125 H125       36.7197  -48.6827  -55.2810 H         1 UNK         0.0794 
    126 H126       35.6923  -47.3672  -55.8305 H         1 UNK         0.0794 
    127 H127       35.9740  -45.2766  -54.5624 H         1 UNK         0.3016 
@<TRIPOS>BOND
     1    1    2 1    
     2    1   67 1    
     3    1   68 1    
     4    1   69 1    
     5    2    3 2    
     6    2    4 am   BACKBONE|DICT|INTERRES
     7    4    5 1    
     8    4   70 1    
     9    5    6 1    
    10    5   65 1    
    11    5   71 1    
    12    6    7 1    
    13    6   72 1    
    14    6   73 1    
    15    7    8 1    
    16    8    9 1    
    17    8   74 1    
    18    8   75 1    
    19    9   10 ar   
    20    9   14 ar   
    21   10   11 ar   
    22   10   76 1    
    23   11   12 ar   
    24   11   48 1    
    25   12   13 ar   
    26   12   77 1    
    27   13   14 ar   
    28   13   15 1    
    29   14   78 1    
    30   15   16 1    
    31   15   79 1    
    32   15   80 1    
    33   16   17 1    
    34   17   18 1    
    35   17   81 1    
    36   17   82 1    
    37   18   19 1    
    38   18   22 1    
    39   18   83 1    
    40   19   20 am   BACKBONE|DICT|INTERRES
    41   19   21 2    
    42   20   84 1    
    43   20   85 1    
    44   22   23 am   BACKBONE|DICT|INTERRES
    45   22   86 1    
    46   23   24 2    
    47   23   25 1    
    48   25   26 1    
    49   25   27 1    
    50   25   87 1    
    51   26   88 1    
    52   26   89 1    
    53   26   90 1    
    54   27   28 am   BACKBONE|DICT|INTERRES
    55   27   91 1    
    56   28   29 2    
    57   28   30 1    
    58   30   31 1    
    59   30   32 1    
    60   30   92 1    
    61   31   93 1    
    62   31   94 1    
    63   31   95 1    
    64   32   33 am   BACKBONE|DICT|INTERRES
    65   32   96 1    
    66   33   34 2    
    67   33   35 1    
    68   35   36 1    
    69   35   37 1    
    70   35   97 1    
    71   36   98 1    
    72   36   99 1    
    73   36  100 1    
    74   37   38 am   BACKBONE|DICT|INTERRES
    75   37  101 1    
    76   38   39 2    
    77   38   40 1    
    78   40   41 1    
    79   40   42 1    
    80   40  102 1    
    81   41  103 1    
    82   41  104 1    
    83   41  105 1    
    84   42   43 am   BACKBONE|DICT|INTERRES
    85   42  106 1    
    86   43   44 2    
    87   43   45 1    
    88   45   46 1    
    89   45   49 1    
    90   45  107 1    
    91   46   47 1    
    92   46  108 1    
    93   46  109 1    
    94   47   48 1    
    95   48  110 1    
    96   48  111 1    
    97   49   50 am   BACKBONE|DICT|INTERRES
    98   49  112 1    
    99   50   51 2    
   100   50   52 1    
   101   52   53 1    
   102   52   54 1    
   103   52  113 1    
   104   53  114 1    
   105   53  115 1    
   106   53  116 1    
   107   54   55 am   BACKBONE|DICT|INTERRES
   108   54  117 1    
   109   55   56 2    
   110   55   57 1    
   111   57   58 1    
   112   57   59 1    
   113   57  118 1    
   114   58  119 1    
   115   58  120 1    
   116   58  121 1    
   117   59   60 am   BACKBONE|DICT|INTERRES
   118   59  122 1    
   119   60   61 2    
   120   60   62 1    
   121   62   63 1    
   122   62   64 1    
   123   62  123 1    
   124   63  124 1    
   125   63  125 1    
   126   63  126 1    
   127   64   65 am   BACKBONE|DICT|INTERRES
   128   64  127 1    
   129   65   66 2    
@<TRIPOS>SUBSTRUCTURE
     1 UNK         1 GROUP             0       ****    0 ROOT    
