@<TRIPOS>MOLECULE
3R134
127   129    1
SMALL
USER_CHARGES


@<TRIPOS>ATOM
      1 CA         33.1528  -46.8135  -50.9192 C.3       0 UNK        -0.1968 
      2 C          34.4750  -46.3642  -51.5242 C.2       0 UNK         0.4852 
      3 O          35.3921  -45.9946  -50.7897 O.2       0 UNK        -0.5359 
      4 N          34.5713  -46.3886  -52.8581 N.am      1 UNK        -0.4300 
      5 CA         35.7664  -46.0031  -53.6231 C.3       1 UNK         0.0863 
      6 C6         35.4149  -45.4829  -55.0415 C.3       11 UNK        -0.0953 
      7 S7         34.2296  -44.0988  -55.0100 S.3       11 UNK        -0.2369 
      8 C8         32.6844  -44.9890  -55.3751 C.3       11 UNK         0.0226 
      9 C9         31.4709  -44.2271  -54.8719 C.ar      11 UNK        -0.0699 
     10 C10        31.2386  -44.1151  -53.4983 C.ar      11 UNK        -0.0804 
     11 C11        30.0999  -43.4603  -53.0205 C.ar      11 UNK        -0.0871 
     12 C12        29.1912  -42.9106  -53.9301 C.ar      11 UNK        -0.1008 
     13 C13        29.4184  -43.0105  -55.3062 C.ar      11 UNK        -0.0735 
     14 C14        30.5631  -43.6633  -55.7717 C.ar      11 UNK        -0.0945 
     15 C15        28.4193  -42.4298  -56.2923 C.3       11 UNK         0.0169 
     16 S16        27.1261  -43.6447  -56.6753 S.3       11 UNK        -0.2669 
     17 C17        26.1652  -42.7313  -57.9270 C.3       11 UNK        -0.0850 
     18 CA         25.1274  -43.6381  -58.6498 C.3       10 UNK         0.0855 
     19 C          24.1586  -42.8313  -59.5685 C.2       10 UNK         0.5543 
     20 N          23.6580  -43.4004  -60.6585 N.am      10 UNK        -0.7343 
     21 O          23.8272  -41.6845  -59.2765 O.2       10 UNK        -0.5027 
     22 N          25.7403  -44.8228  -59.2805 N.am      10 UNK        -0.4495 
     23 C          26.6056  -44.8297  -60.3009 C.2       10 UNK         0.4903 
     24 O          27.0149  -43.8151  -60.8678 O.2       10 UNK        -0.4860 
     25 CA         27.1017  -46.2177  -60.7499 C.3       9 UNK         0.0227 
     26 CB         27.7846  -46.1796  -62.1302 C.3       9 UNK        -0.1964 
     27 N          28.0270  -46.8058  -59.7785 N.am      9 UNK        -0.4231 
     28 C          27.6824  -47.3487  -58.6034 C.2       9 UNK         0.5014 
     29 O          26.5206  -47.4037  -58.1889 O.2       9 UNK        -0.5270 
     30 CA         28.8454  -47.8978  -57.7543 C.3       8 UNK         0.0284 
     31 CB         29.5250  -46.7631  -56.9704 C.3       8 UNK        -0.1977 
     32 N          28.4260  -48.9283  -56.8049 N.am      8 UNK        -0.4342 
     33 C          27.8948  -50.1184  -57.1146 C.2       8 UNK         0.5039 
     34 O          27.7628  -50.5360  -58.2664 O.2       8 UNK        -0.5547 
     35 CA         27.4414  -51.0008  -55.9401 C.3       7 UNK         0.0281 
     36 CB         28.5807  -51.9308  -55.4906 C.3       7 UNK        -0.1963 
     37 N          26.9898  -50.2020  -54.7974 N.am      7 UNK        -0.4444 
     38 C          25.7268  -49.7984  -54.6014 C.2       7 UNK         0.5104 
     39 O          24.7935  -50.0881  -55.3508 O.2       7 UNK        -0.5100 
     40 CA         25.4363  -48.9542  -53.3447 C.3       6 UNK         0.0396 
     41 CB         24.8336  -49.8374  -52.2400 C.3       6 UNK        -0.1801 
     42 N          26.6197  -48.2725  -52.8139 N.am      6 UNK        -0.4747 
     43 C          27.1332  -47.1365  -53.3098 C.2       6 UNK         0.5012 
     44 O          26.6248  -46.5070  -54.2355 O.2       6 UNK        -0.5003 
     45 CA         28.4504  -46.6337  -52.6772 C.3       5 UNK         0.0782 
     46 C46        28.1459  -45.6116  -51.5523 C.3       11 UNK        -0.0868 
     47 S47        29.6525  -44.9805  -50.7356 S.3       11 UNK        -0.2515 
     48 C48        29.8533  -43.3499  -51.5224 C.3       11 UNK         0.0199 
     49 N          29.3226  -47.7233  -52.2103 N.am      5 UNK        -0.4607 
     50 C          29.8134  -48.7019  -52.9788 C.2       4 UNK         0.5031 
     51 O          29.5249  -48.8419  -54.1682 O.2       4 UNK        -0.5119 
     52 CA         30.7026  -49.7413  -52.2790 C.3       4 UNK         0.0263 
     53 CB         29.8287  -50.7662  -51.5364 C.3       4 UNK        -0.1967 
     54 N          31.5611  -50.4555  -53.2255 N.am      4 UNK        -0.4237 
     55 C          32.5893  -49.9120  -53.8865 C.2       3 UNK         0.4908 
     56 O          32.9799  -48.7476  -53.7357 O.2       3 UNK        -0.5102 
     57 CA         33.2989  -50.8248  -54.9019 C.3       3 UNK         0.0241 
     58 CB         32.6295  -50.7069  -56.2815 C.3       3 UNK        -0.1971 
     59 N          34.6969  -50.4179  -55.0126 N.am      3 UNK        -0.4139 
     60 C          35.6375  -50.6989  -54.0987 C.2       2 UNK         0.5016 
     61 O          35.5533  -51.5995  -53.2635 O.2       2 UNK        -0.5319 
     62 CA         36.7947  -49.6992  -54.0333 C.3       2 UNK         0.0286 
     63 CB         37.6855  -49.7799  -55.2903 C.3       2 UNK        -0.1963 
     64 N          36.1676  -48.3875  -53.8784 N.am      2 UNK        -0.4790 
     65 C          36.7427  -47.1901  -53.7329 C.2       1 UNK         0.5024 
     66 O          37.9586  -47.0010  -53.6899 O.2       1 UNK        -0.4888 
     67 H67        32.3762  -46.9162  -51.6770 H         1 UNK         0.0892 
     68 H68        33.2753  -47.7746  -50.4210 H         1 UNK         0.0892 
     69 H69        32.8074  -46.0868  -50.1842 H         1 UNK         0.0892 
     70 H70        33.8041  -46.7793  -53.3917 H         1 UNK         0.3107 
     71 H71        36.2817  -45.2008  -53.0901 H         1 UNK         0.0773 
     72 H72        36.3173  -45.1299  -55.5444 H         1 UNK         0.0680 
     73 H73        35.0159  -46.2828  -55.6689 H         1 UNK         0.0680 
     74 H74        32.6919  -45.9736  -54.9063 H         1 UNK         0.0650 
     75 H75        32.6206  -45.1635  -56.4503 H         1 UNK         0.0650 
     76 H76        31.9410  -44.5472  -52.7990 H         1 UNK         0.1397 
     77 H77        28.3016  -42.4109  -53.5715 H         1 UNK         0.1363 
     78 H78        30.7349  -43.7488  -56.8358 H         1 UNK         0.1355 
     79 H79        27.9632  -41.5277  -55.8815 H         1 UNK         0.0707 
     80 H80        28.9265  -42.1329  -57.2117 H         1 UNK         0.0707 
     81 H81        25.6664  -41.9038  -57.4191 H         1 UNK         0.1034 
     82 H82        26.8461  -42.2796  -58.6500 H         1 UNK         0.1034 
     83 H83        24.4752  -44.0440  -57.8757 H         1 UNK         0.0482 
     84 H84        23.9112  -44.3446  -60.9014 H         1 UNK         0.3460 
     85 H85        23.0240  -42.8789  -61.2433 H         1 UNK         0.3460 
     86 H86        25.5436  -45.7133  -58.8354 H         1 UNK         0.2989 
     87 H87        26.2279  -46.8675  -60.8346 H         1 UNK         0.0559 
     88 H88        27.1176  -45.7573  -62.8832 H         1 UNK         0.0848 
     89 H89        28.0564  -47.1801  -62.4669 H         1 UNK         0.0848 
     90 H90        28.6898  -45.5710  -62.1201 H         1 UNK         0.0848 
     91 H91        29.0071  -46.7669  -60.0194 H         1 UNK         0.3144 
     92 H92        29.5784  -48.3505  -58.4251 H         1 UNK         0.0727 
     93 H93        28.8334  -46.2896  -56.2714 H         1 UNK         0.0790 
     94 H94        29.8921  -45.9857  -57.6409 H         1 UNK         0.0790 
     95 H95        30.3784  -47.1279  -56.3979 H         1 UNK         0.0790 
     96 H96        28.5743  -48.7180  -55.8226 H         1 UNK         0.3215 
     97 H97        26.6187  -51.6257  -56.2951 H         1 UNK         0.0863 
     98 H98        28.2527  -52.6051  -54.6995 H         1 UNK         0.0808 
     99 H99        29.4378  -51.3699  -55.1197 H         1 UNK         0.0808 
    100 H100       28.9291  -52.5485  -56.3195 H         1 UNK         0.0808 
    101 H101       27.7112  -49.8549  -54.1781 H         1 UNK         0.3118 
    102 H102       24.6926  -48.2027  -53.6187 H         1 UNK         0.0546 
    103 H103       25.5288  -50.6130  -51.9163 H         1 UNK         0.0828 
    104 H104       23.9293  -50.3372  -52.5904 H         1 UNK         0.0828 
    105 H105       24.5562  -49.2473  -51.3664 H         1 UNK         0.0828 
    106 H106       27.0944  -48.7141  -52.0397 H         1 UNK         0.3005 
    107 H107       28.9918  -46.1147  -53.4720 H         1 UNK         0.1257 
    108 H108       27.5219  -46.0681  -50.7815 H         1 UNK         0.0775 
    109 H109       27.5714  -44.7700  -51.9448 H         1 UNK         0.0775 
    110 H110       28.9737  -42.7394  -51.3118 H         1 UNK         0.0840 
    111 H111       30.6985  -42.8374  -51.0607 H         1 UNK         0.0840 
    112 H112       29.5918  -47.6762  -51.2380 H         1 UNK         0.2987 
    113 H113       31.3406  -49.2280  -51.5572 H         1 UNK         0.0785 
    114 H114       29.2025  -50.2826  -50.7854 H         1 UNK         0.0798 
    115 H115       30.4397  -51.5030  -51.0143 H         1 UNK         0.0798 
    116 H116       29.1660  -51.3032  -52.2169 H         1 UNK         0.0798 
    117 H117       31.3036  -51.4091  -53.4316 H         1 UNK         0.3079 
    118 H118       33.2482  -51.8617  -54.5624 H         1 UNK         0.0794 
    119 H119       31.5903  -51.0346  -56.2434 H         1 UNK         0.0786 
    120 H120       33.1361  -51.3256  -57.0224 H         1 UNK         0.0786 
    121 H121       32.6299  -49.6783  -56.6455 H         1 UNK         0.0786 
    122 H122       34.8777  -49.6534  -55.6466 H         1 UNK         0.3032 
    123 H123       37.3939  -49.9134  -53.1458 H         1 UNK         0.1094 
    124 H124       38.5659  -49.1443  -55.1976 H         1 UNK         0.0794 
    125 H125       38.0447  -50.7981  -55.4466 H         1 UNK         0.0794 
    126 H126       37.1524  -49.4785  -56.1925 H         1 UNK         0.0794 
    127 H127       35.1548  -48.4206  -53.8233 H         1 UNK         0.3016 
@<TRIPOS>BOND
     1    1    2 1    
     2    1   67 1    
     3    1   68 1    
     4    1   69 1    
     5    2    3 2    
     6    2    4 am   BACKBONE|DICT|INTERRES
     7    4    5 1    
     8    4   70 1    
     9    5    6 1    
    10    5   65 1    
    11    5   71 1    
    12    6    7 1    
    13    6   72 1    
    14    6   73 1    
    15    7    8 1    
    16    8    9 1    
    17    8   74 1    
    18    8   75 1    
    19    9   10 ar   
    20    9   14 ar   
    21   10   11 ar   
    22   10   76 1    
    23   11   12 ar   
    24   11   48 1    
    25   12   13 ar   
    26   12   77 1    
    27   13   14 ar   
    28   13   15 1    
    29   14   78 1    
    30   15   16 1    
    31   15   79 1    
    32   15   80 1    
    33   16   17 1    
    34   17   18 1    
    35   17   81 1    
    36   17   82 1    
    37   18   19 1    
    38   18   22 1    
    39   18   83 1    
    40   19   20 am   BACKBONE|DICT|INTERRES
    41   19   21 2    
    42   20   84 1    
    43   20   85 1    
    44   22   23 am   BACKBONE|DICT|INTERRES
    45   22   86 1    
    46   23   24 2    
    47   23   25 1    
    48   25   26 1    
    49   25   27 1    
    50   25   87 1    
    51   26   88 1    
    52   26   89 1    
    53   26   90 1    
    54   27   28 am   BACKBONE|DICT|INTERRES
    55   27   91 1    
    56   28   29 2    
    57   28   30 1    
    58   30   31 1    
    59   30   32 1    
    60   30   92 1    
    61   31   93 1    
    62   31   94 1    
    63   31   95 1    
    64   32   33 am   BACKBONE|DICT|INTERRES
    65   32   96 1    
    66   33   34 2    
    67   33   35 1    
    68   35   36 1    
    69   35   37 1    
    70   35   97 1    
    71   36   98 1    
    72   36   99 1    
    73   36  100 1    
    74   37   38 am   BACKBONE|DICT|INTERRES
    75   37  101 1    
    76   38   39 2    
    77   38   40 1    
    78   40   41 1    
    79   40   42 1    
    80   40  102 1    
    81   41  103 1    
    82   41  104 1    
    83   41  105 1    
    84   42   43 am   BACKBONE|DICT|INTERRES
    85   42  106 1    
    86   43   44 2    
    87   43   45 1    
    88   45   46 1    
    89   45   49 1    
    90   45  107 1    
    91   46   47 1    
    92   46  108 1    
    93   46  109 1    
    94   47   48 1    
    95   48  110 1    
    96   48  111 1    
    97   49   50 am   BACKBONE|DICT|INTERRES
    98   49  112 1    
    99   50   51 2    
   100   50   52 1    
   101   52   53 1    
   102   52   54 1    
   103   52  113 1    
   104   53  114 1    
   105   53  115 1    
   106   53  116 1    
   107   54   55 am   BACKBONE|DICT|INTERRES
   108   54  117 1    
   109   55   56 2    
   110   55   57 1    
   111   57   58 1    
   112   57   59 1    
   113   57  118 1    
   114   58  119 1    
   115   58  120 1    
   116   58  121 1    
   117   59   60 am   BACKBONE|DICT|INTERRES
   118   59  122 1    
   119   60   61 2    
   120   60   62 1    
   121   62   63 1    
   122   62   64 1    
   123   62  123 1    
   124   63  124 1    
   125   63  125 1    
   126   63  126 1    
   127   64   65 am   BACKBONE|DICT|INTERRES
   128   64  127 1    
   129   65   66 2    
@<TRIPOS>SUBSTRUCTURE
     1 UNK         1 GROUP             0       ****    0 ROOT    
