@<TRIPOS>MOLECULE
3R134
127   129    1
SMALL
USER_CHARGES


@<TRIPOS>ATOM
      1 CA         32.0914  -50.1958  -56.3556 C.3       0 UNK        -0.1968 
      2 C          32.5393  -49.0720  -55.4358 C.2       0 UNK         0.4852 
      3 O          32.4359  -49.1970  -54.2130 O.2       0 UNK        -0.5359 
      4 N          33.0620  -47.9848  -56.0187 N.am      1 UNK        -0.4300 
      5 CA         33.5574  -46.7867  -55.3272 C.3       1 UNK         0.0863 
      6 C6         34.0593  -45.7086  -56.3181 C.3       11 UNK        -0.0953 
      7 S7         32.7663  -45.1670  -57.4835 S.3       11 UNK        -0.2369 
      8 C8         32.3792  -43.5056  -56.8518 C.3       11 UNK         0.0226 
      9 C9         31.5356  -43.5628  -55.5873 C.ar      11 UNK        -0.0699 
     10 C10        32.1292  -43.4451  -54.3263 C.ar      11 UNK        -0.0804 
     11 C11        31.3435  -43.4568  -53.1698 C.ar      11 UNK        -0.0871 
     12 C12        29.9557  -43.5948  -53.2847 C.ar      11 UNK        -0.1008 
     13 C13        29.3497  -43.7294  -54.5376 C.ar      11 UNK        -0.0735 
     14 C14        30.1487  -43.7026  -55.6855 C.ar      11 UNK        -0.0945 
     15 C15        27.8302  -43.8303  -54.6359 C.3       11 UNK         0.0169 
     16 S16        27.2531  -45.0459  -55.8690 S.3       11 UNK        -0.2669 
     17 C17        25.4699  -44.6420  -55.9461 C.3       11 UNK        -0.0850 
     18 CA         25.0670  -43.7875  -57.1797 C.3       10 UNK         0.0855 
     19 C          25.5785  -42.3204  -57.0530 C.2       10 UNK         0.5543 
     20 N          26.5273  -41.8728  -57.8666 N.am      10 UNK        -0.7343 
     21 O          25.0995  -41.5779  -56.1995 O.2       10 UNK        -0.5027 
     22 N          25.3815  -44.4760  -58.4441 N.am      10 UNK        -0.4495 
     23 C          24.9649  -44.0928  -59.6596 C.2       10 UNK         0.4903 
     24 O          24.2249  -43.1303  -59.8642 O.2       10 UNK        -0.4860 
     25 CA         25.4599  -44.9239  -60.8556 C.3       9 UNK         0.0227 
     26 CB         26.8857  -44.5039  -61.2503 C.3       9 UNK        -0.1964 
     27 N          25.4264  -46.3653  -60.6014 N.am      9 UNK        -0.4231 
     28 C          24.3077  -47.0985  -60.4997 C.2       9 UNK         0.5014 
     29 O          23.1732  -46.6466  -60.6615 O.2       9 UNK        -0.5270 
     30 CA         24.4783  -48.5939  -60.1669 C.3       8 UNK         0.0284 
     31 CB         24.4520  -49.4371  -61.4526 C.3       8 UNK        -0.1977 
     32 N          25.6989  -48.8996  -59.4105 N.am      8 UNK        -0.4342 
     33 C          25.9378  -48.4775  -58.1627 C.2       8 UNK         0.5039 
     34 O          25.1486  -47.7896  -57.5084 O.2       8 UNK        -0.5547 
     35 CA         27.2932  -48.8569  -57.5566 C.3       7 UNK         0.0281 
     36 CB         28.4427  -48.0861  -58.2396 C.3       7 UNK        -0.1963 
     37 N          27.2429  -48.5284  -56.1376 N.am      7 UNK        -0.4444 
     38 C          28.0875  -48.9480  -55.1966 C.2       7 UNK         0.5104 
     39 O          29.0269  -49.7182  -55.4025 O.2       7 UNK        -0.5100 
     40 CA         27.8446  -48.4210  -53.7815 C.3       6 UNK         0.0396 
     41 CB         27.1584  -49.4768  -52.8985 C.3       6 UNK        -0.1801 
     42 N          29.1398  -48.0659  -53.2186 N.am      6 UNK        -0.4747 
     43 C          29.3612  -47.0812  -52.3405 C.2       6 UNK         0.5012 
     44 O          28.4611  -46.4061  -51.8372 O.2       6 UNK        -0.5003 
     45 CA         30.8427  -46.8325  -51.9743 C.3       5 UNK         0.0782 
     46 C46        31.0542  -45.7678  -50.8547 C.3       11 UNK        -0.0868 
     47 S47        32.6053  -44.8474  -51.1041 S.3       11 UNK        -0.2515 
     48 C48        31.9896  -43.2786  -51.8003 C.3       11 UNK         0.0199 
     49 N          31.5367  -48.1082  -51.7307 N.am      5 UNK        -0.4607 
     50 C          31.2639  -48.9649  -50.7338 C.2       4 UNK         0.5031 
     51 O          30.4917  -48.7068  -49.8097 O.2       4 UNK        -0.5119 
     52 CA         31.9099  -50.3591  -50.7576 C.3       4 UNK         0.0263 
     53 CB         30.8328  -51.4443  -50.9583 C.3       4 UNK        -0.1967 
     54 N          32.9568  -50.5314  -51.7700 N.am      4 UNK        -0.4237 
     55 C          33.9901  -51.3730  -51.6254 C.2       3 UNK         0.4908 
     56 O          34.2351  -51.9910  -50.5880 O.2       3 UNK        -0.5102 
     57 CA         34.8862  -51.5977  -52.8506 C.3       3 UNK         0.0241 
     58 CB         34.1663  -52.4606  -53.9013 C.3       3 UNK        -0.1971 
     59 N          35.3293  -50.3457  -53.4599 N.am      3 UNK        -0.4139 
     60 C          36.3572  -49.6071  -53.0200 C.2       2 UNK         0.5016 
     61 O          37.0188  -49.8803  -52.0177 O.2       2 UNK        -0.5319 
     62 CA         36.7423  -48.3742  -53.8573 C.3       2 UNK         0.0286 
     63 CB         37.9703  -48.6834  -54.7299 C.3       2 UNK        -0.1963 
     64 N          35.6526  -47.9078  -54.7198 N.am      2 UNK        -0.4790 
     65 C          34.6603  -47.1110  -54.3005 C.2       1 UNK         0.5024 
     66 O          34.5820  -46.6652  -53.1578 O.2       1 UNK        -0.4888 
     67 H67        31.5448  -49.8040  -57.2131 H         1 UNK         0.0892 
     68 H68        32.9512  -50.7598  -56.7158 H         1 UNK         0.0892 
     69 H69        31.4320  -50.8823  -55.8253 H         1 UNK         0.0892 
     70 H70        33.1035  -47.9418  -57.0273 H         1 UNK         0.3107 
     71 H71        32.7155  -46.3688  -54.7728 H         1 UNK         0.0773 
     72 H72        34.8960  -46.0886  -56.9073 H         1 UNK         0.0680 
     73 H73        34.4450  -44.8407  -55.7803 H         1 UNK         0.0680 
     74 H74        31.8371  -42.9585  -57.6246 H         1 UNK         0.0650 
     75 H75        33.3010  -42.9477  -56.6801 H         1 UNK         0.0650 
     76 H76        33.2012  -43.3295  -54.2432 H         1 UNK         0.1397 
     77 H77        29.3406  -43.5872  -52.3953 H         1 UNK         0.1363 
     78 H78        29.6901  -43.7808  -56.6617 H         1 UNK         0.1355 
     79 H79        27.4032  -44.0989  -53.6681 H         1 UNK         0.0707 
     80 H80        27.4432  -42.8423  -54.8853 H         1 UNK         0.0707 
     81 H81        24.9177  -45.5825  -55.9673 H         1 UNK         0.1034 
     82 H82        25.1596  -44.1538  -55.0201 H         1 UNK         0.1034 
     83 H83        23.9785  -43.7074  -57.1555 H         1 UNK         0.0482 
     84 H84        26.9264  -42.4799  -58.5630 H         1 UNK         0.3460 
     85 H85        26.8475  -40.9217  -57.7783 H         1 UNK         0.3460 
     86 H86        25.9694  -45.2917  -58.3596 H         1 UNK         0.2989 
     87 H87        24.8012  -44.7152  -61.7015 H         1 UNK         0.0559 
     88 H88        27.6071  -44.7115  -60.4589 H         1 UNK         0.0848 
     89 H89        26.9322  -43.4344  -61.4611 H         1 UNK         0.0848 
     90 H90        27.2169  -45.0222  -62.1504 H         1 UNK         0.0848 
     91 H91        26.3118  -46.8309  -60.4713 H         1 UNK         0.3144 
     92 H92        23.6249  -48.8864  -59.5512 H         1 UNK         0.0727 
     93 H93        24.4782  -50.5039  -61.2295 H         1 UNK         0.0790 
     94 H94        25.2955  -49.2077  -62.1050 H         1 UNK         0.0790 
     95 H95        23.5403  -49.2507  -62.0223 H         1 UNK         0.0790 
     96 H96        26.3926  -49.4676  -59.8768 H         1 UNK         0.3215 
     97 H97        27.4408  -49.9330  -57.6704 H         1 UNK         0.0863 
     98 H98        29.4089  -48.3409  -57.8042 H         1 UNK         0.0808 
     99 H99        28.3142  -47.0069  -58.1460 H         1 UNK         0.0808 
    100 H100       28.5032  -48.3193  -59.3029 H         1 UNK         0.0808 
    101 H101       26.4647  -47.9230  -55.8996 H         1 UNK         0.3118 
    102 H102       27.2131  -47.5314  -53.8398 H         1 UNK         0.0546 
    103 H103       27.7607  -50.3823  -52.8130 H         1 UNK         0.0828 
    104 H104       26.1913  -49.7635  -53.3131 H         1 UNK         0.0828 
    105 H105       26.9815  -49.0970  -51.8922 H         1 UNK         0.0828 
    106 H106       29.9228  -48.5758  -53.6119 H         1 UNK         0.3005 
    107 H107       31.2687  -46.4305  -52.8945 H         1 UNK         0.1257 
    108 H108       31.0772  -46.2211  -49.8642 H         1 UNK         0.0775 
    109 H109       30.2435  -45.0413  -50.8086 H         1 UNK         0.0775 
    110 H110       31.2860  -42.8222  -51.1021 H         1 UNK         0.0840 
    111 H111       32.8250  -42.5812  -51.8792 H         1 UNK         0.0840 
    112 H112       32.1465  -48.4094  -52.4832 H         1 UNK         0.2987 
    113 H113       32.3494  -50.4904  -49.7664 H         1 UNK         0.0785 
    114 H114       31.2520  -52.4458  -50.8603 H         1 UNK         0.0798 
    115 H115       30.3699  -51.3691  -51.9432 H         1 UNK         0.0798 
    116 H116       30.0382  -51.3564  -50.2161 H         1 UNK         0.0798 
    117 H117       32.8126  -50.0782  -52.6708 H         1 UNK         0.3079 
    118 H118       35.7683  -52.1508  -52.5193 H         1 UNK         0.0794 
    119 H119       33.2601  -51.9822  -54.2729 H         1 UNK         0.0786 
    120 H120       33.8730  -53.4221  -53.4776 H         1 UNK         0.0786 
    121 H121       34.8116  -52.6679  -54.7551 H         1 UNK         0.0786 
    122 H122       34.8146  -50.0160  -54.2621 H         1 UNK         0.3032 
    123 H123       37.0137  -47.5791  -53.1584 H         1 UNK         0.1094 
    124 H124       38.2952  -47.8024  -55.2839 H         1 UNK         0.0794 
    125 H125       38.8130  -49.0067  -54.1169 H         1 UNK         0.0794 
    126 H126       37.7674  -49.4779  -55.4491 H         1 UNK         0.0794 
    127 H127       35.6519  -48.2269  -55.6784 H         1 UNK         0.3016 
@<TRIPOS>BOND
     1    1    2 1    
     2    1   67 1    
     3    1   68 1    
     4    1   69 1    
     5    2    3 2    
     6    2    4 am   BACKBONE|DICT|INTERRES
     7    4    5 1    
     8    4   70 1    
     9    5    6 1    
    10    5   65 1    
    11    5   71 1    
    12    6    7 1    
    13    6   72 1    
    14    6   73 1    
    15    7    8 1    
    16    8    9 1    
    17    8   74 1    
    18    8   75 1    
    19    9   10 ar   
    20    9   14 ar   
    21   10   11 ar   
    22   10   76 1    
    23   11   12 ar   
    24   11   48 1    
    25   12   13 ar   
    26   12   77 1    
    27   13   14 ar   
    28   13   15 1    
    29   14   78 1    
    30   15   16 1    
    31   15   79 1    
    32   15   80 1    
    33   16   17 1    
    34   17   18 1    
    35   17   81 1    
    36   17   82 1    
    37   18   19 1    
    38   18   22 1    
    39   18   83 1    
    40   19   20 am   BACKBONE|DICT|INTERRES
    41   19   21 2    
    42   20   84 1    
    43   20   85 1    
    44   22   23 am   BACKBONE|DICT|INTERRES
    45   22   86 1    
    46   23   24 2    
    47   23   25 1    
    48   25   26 1    
    49   25   27 1    
    50   25   87 1    
    51   26   88 1    
    52   26   89 1    
    53   26   90 1    
    54   27   28 am   BACKBONE|DICT|INTERRES
    55   27   91 1    
    56   28   29 2    
    57   28   30 1    
    58   30   31 1    
    59   30   32 1    
    60   30   92 1    
    61   31   93 1    
    62   31   94 1    
    63   31   95 1    
    64   32   33 am   BACKBONE|DICT|INTERRES
    65   32   96 1    
    66   33   34 2    
    67   33   35 1    
    68   35   36 1    
    69   35   37 1    
    70   35   97 1    
    71   36   98 1    
    72   36   99 1    
    73   36  100 1    
    74   37   38 am   BACKBONE|DICT|INTERRES
    75   37  101 1    
    76   38   39 2    
    77   38   40 1    
    78   40   41 1    
    79   40   42 1    
    80   40  102 1    
    81   41  103 1    
    82   41  104 1    
    83   41  105 1    
    84   42   43 am   BACKBONE|DICT|INTERRES
    85   42  106 1    
    86   43   44 2    
    87   43   45 1    
    88   45   46 1    
    89   45   49 1    
    90   45  107 1    
    91   46   47 1    
    92   46  108 1    
    93   46  109 1    
    94   47   48 1    
    95   48  110 1    
    96   48  111 1    
    97   49   50 am   BACKBONE|DICT|INTERRES
    98   49  112 1    
    99   50   51 2    
   100   50   52 1    
   101   52   53 1    
   102   52   54 1    
   103   52  113 1    
   104   53  114 1    
   105   53  115 1    
   106   53  116 1    
   107   54   55 am   BACKBONE|DICT|INTERRES
   108   54  117 1    
   109   55   56 2    
   110   55   57 1    
   111   57   58 1    
   112   57   59 1    
   113   57  118 1    
   114   58  119 1    
   115   58  120 1    
   116   58  121 1    
   117   59   60 am   BACKBONE|DICT|INTERRES
   118   59  122 1    
   119   60   61 2    
   120   60   62 1    
   121   62   63 1    
   122   62   64 1    
   123   62  123 1    
   124   63  124 1    
   125   63  125 1    
   126   63  126 1    
   127   64   65 am   BACKBONE|DICT|INTERRES
   128   64  127 1    
   129   65   66 2    
@<TRIPOS>SUBSTRUCTURE
     1 UNK         1 GROUP             0       ****    0 ROOT    
