@<TRIPOS>MOLECULE
3R134
127   129    1
SMALL
USER_CHARGES


@<TRIPOS>ATOM
      1 CA         30.9593  -45.0779  -48.1976 C.3       0 UNK        -0.1968 
      2 C          31.6447  -45.2025  -49.5508 C.2       0 UNK         0.4852 
      3 O          30.9983  -45.5911  -50.5236 O.2       0 UNK        -0.5359 
      4 N          32.9421  -44.8700  -49.6121 N.am      1 UNK        -0.4300 
      5 CA         33.8106  -44.9612  -50.7924 C.3       1 UNK         0.0863 
      6 C6         33.3436  -44.0444  -51.9618 C.3       11 UNK        -0.0953 
      7 S7         34.7430  -43.4223  -52.9510 S.3       11 UNK        -0.2369 
      8 C8         33.9460  -42.0839  -53.8901 C.3       11 UNK         0.0226 
      9 C9         32.9835  -42.6159  -54.9424 C.ar      11 UNK        -0.0699 
     10 C10        33.4733  -43.3239  -56.0436 C.ar      11 UNK        -0.0804 
     11 C11        32.6065  -43.7922  -57.0353 C.ar      11 UNK        -0.0871 
     12 C12        31.2348  -43.5355  -56.9207 C.ar      11 UNK        -0.1008 
     13 C13        30.7320  -42.8291  -55.8239 C.ar      11 UNK        -0.0735 
     14 C14        31.6106  -42.3751  -54.8353 C.ar      11 UNK        -0.0945 
     15 C15        29.2442  -42.5323  -55.7187 C.3       11 UNK         0.0169 
     16 S16        28.4272  -43.6612  -54.5524 S.3       11 UNK        -0.2669 
     17 C17        26.6865  -43.1342  -54.7043 C.3       11 UNK        -0.0850 
     18 CA         25.7639  -44.2291  -55.3039 C.3       10 UNK         0.0855 
     19 C          24.2887  -43.7401  -55.2841 C.2       10 UNK         0.5543 
     20 N          23.5271  -44.1023  -54.2611 N.am      10 UNK        -0.7343 
     21 O          23.8505  -42.9948  -56.1587 O.2       10 UNK        -0.5027 
     22 N          26.2205  -44.6481  -56.6389 N.am      10 UNK        -0.4495 
     23 C          25.6547  -45.5873  -57.4096 C.2       10 UNK         0.4903 
     24 O          24.6660  -46.2452  -57.0824 O.2       10 UNK        -0.4860 
     25 CA         26.2862  -45.8422  -58.7881 C.3       9 UNK         0.0227 
     26 CB         27.4183  -44.8602  -59.1617 C.3       9 UNK        -0.1964 
     27 N          26.8161  -47.2019  -58.8043 N.am      9 UNK        -0.4231 
     28 C          26.3486  -48.2234  -59.5303 C.2       9 UNK         0.5014 
     29 O          25.4055  -48.1385  -60.3191 O.2       9 UNK        -0.5270 
     30 CA         27.0697  -49.5727  -59.3629 C.3       8 UNK         0.0284 
     31 CB         28.3950  -49.5786  -60.1427 C.3       8 UNK        -0.1977 
     32 N          27.3210  -49.9258  -57.9625 N.am      8 UNK        -0.4342 
     33 C          26.3684  -50.2757  -57.0855 C.2       8 UNK         0.5039 
     34 O          25.1728  -50.3601  -57.3692 O.2       8 UNK        -0.5547 
     35 CA         26.8215  -50.6039  -55.6522 C.3       7 UNK         0.0281 
     36 CB         27.3613  -52.0406  -55.5647 C.3       7 UNK        -0.1963 
     37 N          27.8284  -49.6646  -55.1570 N.am      7 UNK        -0.4444 
     38 C          27.5696  -48.3954  -54.8122 C.2       7 UNK         0.5104 
     39 O          26.4366  -47.9186  -54.7635 O.2       7 UNK        -0.5100 
     40 CA         28.7739  -47.4962  -54.4829 C.3       6 UNK         0.0396 
     41 CB         29.1169  -47.5608  -52.9882 C.3       6 UNK        -0.1801 
     42 N          29.9666  -47.8037  -55.2749 N.am      6 UNK        -0.4747 
     43 C          30.0479  -47.6769  -56.6068 C.2       6 UNK         0.5012 
     44 O          29.1304  -47.2525  -57.3060 O.2       6 UNK        -0.5003 
     45 CA         31.3360  -48.1824  -57.2829 C.3       5 UNK         0.0782 
     46 C46        32.4454  -47.1043  -57.3261 C.3       11 UNK        -0.0868 
     47 S47        32.2105  -45.9878  -58.7481 S.3       11 UNK        -0.2515 
     48 C48        33.1780  -44.5287  -58.2435 C.3       11 UNK         0.0199 
     49 N          31.7946  -49.4348  -56.6802 N.am      5 UNK        -0.4607 
     50 C          31.1687  -50.6090  -56.8383 C.2       4 UNK         0.5031 
     51 O          30.1569  -50.7556  -57.5240 O.2       4 UNK        -0.5119 
     52 CA         31.7456  -51.8102  -56.0723 C.3       4 UNK         0.0263 
     53 CB         32.9327  -52.4204  -56.8341 C.3       4 UNK        -0.1967 
     54 N          32.1578  -51.4619  -54.7102 N.am      4 UNK        -0.4237 
     55 C          31.3082  -51.0897  -53.7424 C.2       3 UNK         0.4908 
     56 O          30.0873  -51.0408  -53.8856 O.2       3 UNK        -0.5102 
     57 CA         31.9234  -50.6651  -52.3989 C.3       3 UNK         0.0241 
     58 CB         32.1719  -51.8929  -51.5082 C.3       3 UNK        -0.1971 
     59 N          33.1598  -49.8824  -52.5157 N.am      3 UNK        -0.4139 
     60 C          33.2776  -48.7231  -53.1782 C.2       2 UNK         0.5016 
     61 O          32.3853  -48.2268  -53.8677 O.2       2 UNK        -0.5319 
     62 CA         34.6200  -47.9870  -53.0615 C.3       2 UNK         0.0286 
     63 CB         35.2802  -47.8318  -54.4420 C.3       2 UNK        -0.1963 
     64 N          34.4184  -46.6628  -52.4737 N.am      2 UNK        -0.4790 
     65 C          34.0747  -46.4324  -51.1993 C.2       1 UNK         0.5024 
     66 O          34.0058  -47.3261  -50.3506 O.2       1 UNK        -0.4888 
     67 H67        30.5755  -46.0477  -47.8819 H         1 UNK         0.0892 
     68 H68        31.6385  -44.7147  -47.4265 H         1 UNK         0.0892 
     69 H69        30.1210  -44.3848  -48.2646 H         1 UNK         0.0892 
     70 H70        33.4114  -44.5888  -48.7626 H         1 UNK         0.3107 
     71 H71        34.7737  -44.5885  -50.4398 H         1 UNK         0.0773 
     72 H72        32.8250  -43.1720  -51.5609 H         1 UNK         0.0680 
     73 H73        32.6198  -44.5455  -52.6084 H         1 UNK         0.0680 
     74 H74        34.7199  -41.4945  -54.3839 H         1 UNK         0.0650 
     75 H75        33.4407  -41.4068  -53.1997 H         1 UNK         0.0650 
     76 H76        34.5370  -43.5015  -56.1277 H         1 UNK         0.1397 
     77 H77        30.5580  -43.8819  -57.6896 H         1 UNK         0.1363 
     78 H78        31.2227  -41.8263  -53.9880 H         1 UNK         0.1355 
     79 H79        28.7702  -42.6144  -56.6980 H         1 UNK         0.0707 
     80 H80        29.0982  -41.5025  -55.3887 H         1 UNK         0.0707 
     81 H81        26.3449  -42.8632  -53.7032 H         1 UNK         0.1034 
     82 H82        26.6261  -42.2178  -55.2950 H         1 UNK         0.1034 
     83 H83        25.8331  -45.1132  -54.6668 H         1 UNK         0.0482 
     84 H84        23.8813  -44.7079  -53.5370 H         1 UNK         0.3460 
     85 H85        22.5727  -43.7799  -54.2215 H         1 UNK         0.3460 
     86 H86        27.0355  -44.1707  -56.9894 H         1 UNK         0.2989 
     87 H87        25.4897  -45.7315  -59.5263 H         1 UNK         0.0559 
     88 H88        28.2655  -44.9255  -58.4775 H         1 UNK         0.0848 
     89 H89        27.7957  -45.0688  -60.1629 H         1 UNK         0.0848 
     90 H90        27.0644  -43.8283  -59.1664 H         1 UNK         0.0848 
     91 H91        27.6078  -47.3656  -58.1812 H         1 UNK         0.3144 
     92 H92        26.4273  -50.3457  -59.7902 H         1 UNK         0.0727 
     93 H93        28.8798  -50.5539  -60.0937 H         1 UNK         0.0790 
     94 H94        29.0951  -48.8374  -59.7565 H         1 UNK         0.0790 
     95 H95        28.2283  -49.3518  -61.1966 H         1 UNK         0.0790 
     96 H96        28.2912  -49.9544  -57.6644 H         1 UNK         0.3215 
     97 H97        25.9452  -50.5347  -55.0038 H         1 UNK         0.0863 
     98 H98        27.6123  -52.3067  -54.5378 H         1 UNK         0.0808 
     99 H99        28.2565  -52.1767  -56.1721 H         1 UNK         0.0808 
    100 H100       26.6177  -52.7584  -55.9134 H         1 UNK         0.0808 
    101 H101       28.7781  -50.0098  -55.0622 H         1 UNK         0.3118 
    102 H102       28.4829  -46.4741  -54.7220 H         1 UNK         0.0546 
    103 H103       29.4059  -48.5666  -52.6845 H         1 UNK         0.0828 
    104 H104       28.2619  -47.2661  -52.3787 H         1 UNK         0.0828 
    105 H105       29.9382  -46.8871  -52.7418 H         1 UNK         0.0828 
    106 H106       30.7938  -48.1089  -54.7630 H         1 UNK         0.3005 
    107 H107       31.0688  -48.4270  -58.3140 H         1 UNK         0.1257 
    108 H108       33.4248  -47.5697  -57.4473 H         1 UNK         0.0775 
    109 H109       32.4918  -46.5390  -56.3927 H         1 UNK         0.0775 
    110 H110       34.2051  -44.8452  -58.0545 H         1 UNK         0.0840 
    111 H111       33.2204  -43.8330  -59.0824 H         1 UNK         0.0840 
    112 H112       32.5703  -49.3724  -56.0375 H         1 UNK         0.2987 
    113 H113       30.9598  -52.5657  -56.0037 H         1 UNK         0.0785 
    114 H114       33.7662  -51.7218  -56.9167 H         1 UNK         0.0798 
    115 H115       33.2974  -53.3227  -56.3428 H         1 UNK         0.0798 
    116 H116       32.6413  -52.7011  -57.8474 H         1 UNK         0.0798 
    117 H117       33.1462  -51.4791  -54.5055 H         1 UNK         0.3079 
    118 H118       31.1914  -50.0291  -51.8973 H         1 UNK         0.0794 
    119 H119       32.4947  -51.5998  -50.5089 H         1 UNK         0.0786 
    120 H120       32.9331  -52.5516  -51.9283 H         1 UNK         0.0786 
    121 H121       31.2603  -52.4810  -51.3914 H         1 UNK         0.0786 
    122 H122       33.9458  -50.2078  -51.9713 H         1 UNK         0.3032 
    123 H123       35.2936  -48.5560  -52.4167 H         1 UNK         0.1094 
    124 H124       34.6689  -47.2331  -55.1184 H         1 UNK         0.0794 
    125 H125       36.2558  -47.3517  -54.3620 H         1 UNK         0.0794 
    126 H126       35.4355  -48.8030  -54.9136 H         1 UNK         0.0794 
    127 H127       34.4438  -45.8736  -53.1058 H         1 UNK         0.3016 
@<TRIPOS>BOND
     1    1    2 1    
     2    1   67 1    
     3    1   68 1    
     4    1   69 1    
     5    2    3 2    
     6    2    4 am   BACKBONE|DICT|INTERRES
     7    4    5 1    
     8    4   70 1    
     9    5    6 1    
    10    5   65 1    
    11    5   71 1    
    12    6    7 1    
    13    6   72 1    
    14    6   73 1    
    15    7    8 1    
    16    8    9 1    
    17    8   74 1    
    18    8   75 1    
    19    9   10 ar   
    20    9   14 ar   
    21   10   11 ar   
    22   10   76 1    
    23   11   12 ar   
    24   11   48 1    
    25   12   13 ar   
    26   12   77 1    
    27   13   14 ar   
    28   13   15 1    
    29   14   78 1    
    30   15   16 1    
    31   15   79 1    
    32   15   80 1    
    33   16   17 1    
    34   17   18 1    
    35   17   81 1    
    36   17   82 1    
    37   18   19 1    
    38   18   22 1    
    39   18   83 1    
    40   19   20 am   BACKBONE|DICT|INTERRES
    41   19   21 2    
    42   20   84 1    
    43   20   85 1    
    44   22   23 am   BACKBONE|DICT|INTERRES
    45   22   86 1    
    46   23   24 2    
    47   23   25 1    
    48   25   26 1    
    49   25   27 1    
    50   25   87 1    
    51   26   88 1    
    52   26   89 1    
    53   26   90 1    
    54   27   28 am   BACKBONE|DICT|INTERRES
    55   27   91 1    
    56   28   29 2    
    57   28   30 1    
    58   30   31 1    
    59   30   32 1    
    60   30   92 1    
    61   31   93 1    
    62   31   94 1    
    63   31   95 1    
    64   32   33 am   BACKBONE|DICT|INTERRES
    65   32   96 1    
    66   33   34 2    
    67   33   35 1    
    68   35   36 1    
    69   35   37 1    
    70   35   97 1    
    71   36   98 1    
    72   36   99 1    
    73   36  100 1    
    74   37   38 am   BACKBONE|DICT|INTERRES
    75   37  101 1    
    76   38   39 2    
    77   38   40 1    
    78   40   41 1    
    79   40   42 1    
    80   40  102 1    
    81   41  103 1    
    82   41  104 1    
    83   41  105 1    
    84   42   43 am   BACKBONE|DICT|INTERRES
    85   42  106 1    
    86   43   44 2    
    87   43   45 1    
    88   45   46 1    
    89   45   49 1    
    90   45  107 1    
    91   46   47 1    
    92   46  108 1    
    93   46  109 1    
    94   47   48 1    
    95   48  110 1    
    96   48  111 1    
    97   49   50 am   BACKBONE|DICT|INTERRES
    98   49  112 1    
    99   50   51 2    
   100   50   52 1    
   101   52   53 1    
   102   52   54 1    
   103   52  113 1    
   104   53  114 1    
   105   53  115 1    
   106   53  116 1    
   107   54   55 am   BACKBONE|DICT|INTERRES
   108   54  117 1    
   109   55   56 2    
   110   55   57 1    
   111   57   58 1    
   112   57   59 1    
   113   57  118 1    
   114   58  119 1    
   115   58  120 1    
   116   58  121 1    
   117   59   60 am   BACKBONE|DICT|INTERRES
   118   59  122 1    
   119   60   61 2    
   120   60   62 1    
   121   62   63 1    
   122   62   64 1    
   123   62  123 1    
   124   63  124 1    
   125   63  125 1    
   126   63  126 1    
   127   64   65 am   BACKBONE|DICT|INTERRES
   128   64  127 1    
   129   65   66 2    
@<TRIPOS>SUBSTRUCTURE
     1 UNK         1 GROUP             0       ****    0 ROOT    
