@<TRIPOS>MOLECULE
3R134
127   129    1
SMALL
USER_CHARGES


@<TRIPOS>ATOM
      1 CA         34.5721  -43.3946  -50.3152 C.3       0 UNK        -0.1968 
      2 C          35.1250  -44.6461  -50.9810 C.2       0 UNK         0.4852 
      3 O          36.0397  -45.2719  -50.4444 O.2       0 UNK        -0.5359 
      4 N          34.5695  -45.0189  -52.1423 N.am      1 UNK        -0.4300 
      5 CA         34.9950  -46.1706  -52.9535 C.3       1 UNK         0.0863 
      6 C6         34.6621  -46.0027  -54.4609 C.3       11 UNK        -0.0953 
      7 S7         35.1602  -44.3965  -55.1724 S.3       11 UNK        -0.2369 
      8 C8         33.9602  -44.2224  -56.5448 C.3       11 UNK         0.0226 
      9 C9         32.5788  -43.6810  -56.1622 C.ar      11 UNK        -0.0699 
     10 C10        32.0944  -43.7151  -54.8503 C.ar      11 UNK        -0.0804 
     11 C11        30.8230  -43.2347  -54.5376 C.ar      11 UNK        -0.0871 
     12 C12        30.0314  -42.6792  -55.5446 C.ar      11 UNK        -0.1008 
     13 C13        30.4948  -42.6309  -56.8623 C.ar      11 UNK        -0.0735 
     14 C14        31.7624  -43.1431  -57.1639 C.ar      11 UNK        -0.0945 
     15 C15        29.6400  -42.0062  -57.9565 C.3       11 UNK         0.0169 
     16 S16        28.2587  -43.0866  -58.4438 S.3       11 UNK        -0.2669 
     17 C17        26.8632  -42.3156  -57.5468 C.3       11 UNK        -0.0850 
     18 CA         25.5186  -43.0701  -57.7140 C.3       10 UNK         0.0855 
     19 C          24.9470  -42.9422  -59.1590 C.2       10 UNK         0.5543 
     20 N          24.8076  -44.0183  -59.9256 N.am      10 UNK        -0.7343 
     21 O          24.6108  -41.8401  -59.5857 O.2       10 UNK        -0.5027 
     22 N          25.6136  -44.4426  -57.1996 N.am      10 UNK        -0.4495 
     23 C          24.5733  -45.2259  -56.8885 C.2       10 UNK         0.4903 
     24 O          23.4068  -44.8302  -56.8609 O.2       10 UNK        -0.4860 
     25 CA         24.8922  -46.6994  -56.5598 C.3       9 UNK         0.0227 
     26 CB         23.7160  -47.6455  -56.8784 C.3       9 UNK        -0.1964 
     27 N          26.1281  -47.1932  -57.1820 N.am      9 UNK        -0.4231 
     28 C          26.4252  -47.2399  -58.4905 C.2       9 UNK         0.5014 
     29 O          25.6827  -46.8250  -59.3821 O.2       9 UNK        -0.5270 
     30 CA         27.7941  -47.8284  -58.8683 C.3       8 UNK         0.0284 
     31 CB         28.8806  -46.7434  -58.8086 C.3       8 UNK        -0.1977 
     32 N          28.1795  -48.9660  -58.0278 N.am      8 UNK        -0.4342 
     33 C          27.5876  -50.1692  -58.0818 C.2       8 UNK         0.5039 
     34 O          26.6835  -50.4527  -58.8692 O.2       8 UNK        -0.5547 
     35 CA         28.0840  -51.2445  -57.1011 C.3       7 UNK         0.0281 
     36 CB         29.3902  -51.8757  -57.6080 C.3       7 UNK        -0.1963 
     37 N          28.2673  -50.7372  -55.7396 N.am      7 UNK        -0.4444 
     38 C          27.2688  -50.3371  -54.9385 C.2       7 UNK         0.5104 
     39 O          26.0773  -50.3987  -55.2422 O.2       7 UNK        -0.5100 
     40 CA         27.6637  -49.7425  -53.5741 C.3       6 UNK         0.0396 
     41 CB         27.9228  -50.8529  -52.5443 C.3       6 UNK        -0.1801 
     42 N          28.8262  -48.8538  -53.6438 N.am      6 UNK        -0.4747 
     43 C          28.8833  -47.7257  -54.3689 C.2       6 UNK         0.5012 
     44 O          27.9561  -47.3036  -55.0594 O.2       6 UNK        -0.5003 
     45 CA         30.2323  -46.9819  -54.3710 C.3       5 UNK         0.0782 
     46 C46        30.4477  -46.1782  -53.0599 C.3       11 UNK        -0.0868 
     47 S47        29.2689  -44.7928  -52.8616 S.3       11 UNK        -0.2515 
     48 C48        30.3096  -43.3207  -53.1095 C.3       11 UNK         0.0199 
     49 N          31.3202  -47.9329  -54.6393 N.am      5 UNK        -0.4607 
     50 C          31.4785  -48.5774  -55.8077 C.2       4 UNK         0.5031 
     51 O          30.7929  -48.3518  -56.8033 O.2       4 UNK        -0.5119 
     52 CA         32.5183  -49.7099  -55.8758 C.3       4 UNK         0.0263 
     53 CB         33.8599  -49.2252  -56.4403 C.3       4 UNK        -0.1967 
     54 N          32.7240  -50.3749  -54.5885 N.am      4 UNK        -0.4237 
     55 C          31.8384  -51.2279  -54.0531 C.2       3 UNK         0.4908 
     56 O          30.7954  -51.5635  -54.6124 O.2       3 UNK        -0.5102 
     57 CA         32.1321  -51.7598  -52.6399 C.3       3 UNK         0.0241 
     58 CB         32.9741  -53.0432  -52.7115 C.3       3 UNK        -0.1971 
     59 N          32.7960  -50.7846  -51.7704 N.am      3 UNK        -0.4139 
     60 C          32.3047  -49.5785  -51.4542 C.2       2 UNK         0.5016 
     61 O          31.2204  -49.1596  -51.8617 O.2       2 UNK        -0.5319 
     62 CA         33.1732  -48.6644  -50.5710 C.3       2 UNK         0.0286 
     63 CB         34.3202  -49.4002  -49.8408 C.3       2 UNK        -0.1963 
     64 N          33.7021  -47.5122  -51.3140 N.am      2 UNK        -0.4790 
     65 C          34.4678  -47.5270  -52.4189 C.2       1 UNK         0.5024 
     66 O          34.7574  -48.5609  -53.0242 O.2       1 UNK        -0.4888 
     67 H67        35.3609  -42.6513  -50.2027 H         1 UNK         0.0892 
     68 H68        33.7644  -42.9455  -50.8929 H         1 UNK         0.0892 
     69 H69        34.1872  -43.6350  -49.3244 H         1 UNK         0.0892 
     70 H70        33.8459  -44.4436  -52.5428 H         1 UNK         0.3107 
     71 H71        36.0832  -46.2309  -52.8803 H         1 UNK         0.0773 
     72 H72        33.6009  -46.1723  -54.6484 H         1 UNK         0.0680 
     73 H73        35.1997  -46.7564  -55.0343 H         1 UNK         0.0680 
     74 H74        34.4069  -43.5530  -57.2815 H         1 UNK         0.0650 
     75 H75        33.8396  -45.1867  -57.0406 H         1 UNK         0.0650 
     76 H76        32.6969  -44.1218  -54.0578 H         1 UNK         0.1397 
     77 H77        29.0532  -42.2914  -55.3001 H         1 UNK         0.1363 
     78 H78        32.1212  -43.1123  -58.1839 H         1 UNK         0.1355 
     79 H79        29.2662  -41.0363  -57.6252 H         1 UNK         0.0707 
     80 H80        30.2468  -41.8065  -58.8411 H         1 UNK         0.0707 
     81 H81        26.7605  -41.2793  -57.8752 H         1 UNK         0.1034 
     82 H82        27.1118  -42.2636  -56.4870 H         1 UNK         0.1034 
     83 H83        24.7958  -42.5547  -57.0784 H         1 UNK         0.0482 
     84 H84        24.4313  -43.9148  -60.8541 H         1 UNK         0.3460 
     85 H85        25.0921  -44.9359  -59.5980 H         1 UNK         0.3460 
     86 H86        26.5367  -44.8505  -57.2115 H         1 UNK         0.2989 
     87 H87        25.0650  -46.7377  -55.4834 H         1 UNK         0.0559 
     88 H88        23.4500  -47.6167  -57.9355 H         1 UNK         0.0848 
     89 H89        22.8258  -47.3731  -56.3103 H         1 UNK         0.0848 
     90 H90        23.9592  -48.6770  -56.6216 H         1 UNK         0.0848 
     91 H91        26.8485  -47.4756  -56.5186 H         1 UNK         0.3144 
     92 H92        27.7281  -48.1803  -59.9001 H         1 UNK         0.0727 
     93 H93        29.0013  -46.3426  -57.8009 H         1 UNK         0.0790 
     94 H94        28.6326  -45.9098  -59.4665 H         1 UNK         0.0790 
     95 H95        29.8470  -47.1308  -59.1314 H         1 UNK         0.0790 
     96 H96        28.9607  -48.8204  -57.3937 H         1 UNK         0.3215 
     97 H97        27.3258  -52.0298  -57.0603 H         1 UNK         0.0863 
     98 H98        30.1894  -51.1394  -57.6870 H         1 UNK         0.0808 
     99 H99        29.2520  -52.3122  -58.5981 H         1 UNK         0.0808 
    100 H100       29.7303  -52.6732  -56.9472 H         1 UNK         0.0808 
    101 H101       29.2136  -50.7456  -55.3681 H         1 UNK         0.3118 
    102 H102       26.8213  -49.1447  -53.2200 H         1 UNK         0.0546 
    103 H103       28.1461  -50.4388  -51.5609 H         1 UNK         0.0828 
    104 H104       28.7574  -51.4902  -52.8359 H         1 UNK         0.0828 
    105 H105       27.0471  -51.4941  -52.4354 H         1 UNK         0.0828 
    106 H106       29.6395  -49.1102  -53.0903 H         1 UNK         0.3005 
    107 H107       30.2108  -46.2706  -55.2011 H         1 UNK         0.1257 
    108 H108       31.4666  -45.7970  -53.0144 H         1 UNK         0.0775 
    109 H109       30.3421  -46.8195  -52.1849 H         1 UNK         0.0775 
    110 H110       29.7217  -42.4312  -52.8776 H         1 UNK         0.0840 
    111 H111       31.1350  -43.3308  -52.3961 H         1 UNK         0.0840 
    112 H112       31.8476  -48.2466  -53.8364 H         1 UNK         0.2987 
    113 H113       32.1294  -50.4481  -56.5793 H         1 UNK         0.0785 
    114 H114       34.4803  -50.0674  -56.7469 H         1 UNK         0.0798 
    115 H115       33.7189  -48.5909  -57.3169 H         1 UNK         0.0798 
    116 H116       34.4226  -48.6585  -55.7050 H         1 UNK         0.0798 
    117 H117       33.5425  -50.1080  -54.0530 H         1 UNK         0.3079 
    118 H118       31.1729  -52.0057  -52.1799 H         1 UNK         0.0794 
    119 H119       33.1074  -53.4866  -51.7245 H         1 UNK         0.0786 
    120 H120       33.9626  -52.8560  -53.1331 H         1 UNK         0.0786 
    121 H121       32.4888  -53.7931  -53.3382 H         1 UNK         0.0786 
    122 H122       33.7063  -51.0361  -51.4132 H         1 UNK         0.3032 
    123 H123       32.5015  -48.2656  -49.8088 H         1 UNK         0.1094 
    124 H124       33.9427  -50.2378  -49.2523 H         1 UNK         0.0794 
    125 H125       35.0738  -49.7859  -50.5284 H         1 UNK         0.0794 
    126 H126       34.8284  -48.7305  -49.1467 H         1 UNK         0.0794 
    127 H127       33.5000  -46.6087  -50.9106 H         1 UNK         0.3016 
@<TRIPOS>BOND
     1    1    2 1    
     2    1   67 1    
     3    1   68 1    
     4    1   69 1    
     5    2    3 2    
     6    2    4 am   BACKBONE|DICT|INTERRES
     7    4    5 1    
     8    4   70 1    
     9    5    6 1    
    10    5   65 1    
    11    5   71 1    
    12    6    7 1    
    13    6   72 1    
    14    6   73 1    
    15    7    8 1    
    16    8    9 1    
    17    8   74 1    
    18    8   75 1    
    19    9   10 ar   
    20    9   14 ar   
    21   10   11 ar   
    22   10   76 1    
    23   11   12 ar   
    24   11   48 1    
    25   12   13 ar   
    26   12   77 1    
    27   13   14 ar   
    28   13   15 1    
    29   14   78 1    
    30   15   16 1    
    31   15   79 1    
    32   15   80 1    
    33   16   17 1    
    34   17   18 1    
    35   17   81 1    
    36   17   82 1    
    37   18   19 1    
    38   18   22 1    
    39   18   83 1    
    40   19   20 am   BACKBONE|DICT|INTERRES
    41   19   21 2    
    42   20   84 1    
    43   20   85 1    
    44   22   23 am   BACKBONE|DICT|INTERRES
    45   22   86 1    
    46   23   24 2    
    47   23   25 1    
    48   25   26 1    
    49   25   27 1    
    50   25   87 1    
    51   26   88 1    
    52   26   89 1    
    53   26   90 1    
    54   27   28 am   BACKBONE|DICT|INTERRES
    55   27   91 1    
    56   28   29 2    
    57   28   30 1    
    58   30   31 1    
    59   30   32 1    
    60   30   92 1    
    61   31   93 1    
    62   31   94 1    
    63   31   95 1    
    64   32   33 am   BACKBONE|DICT|INTERRES
    65   32   96 1    
    66   33   34 2    
    67   33   35 1    
    68   35   36 1    
    69   35   37 1    
    70   35   97 1    
    71   36   98 1    
    72   36   99 1    
    73   36  100 1    
    74   37   38 am   BACKBONE|DICT|INTERRES
    75   37  101 1    
    76   38   39 2    
    77   38   40 1    
    78   40   41 1    
    79   40   42 1    
    80   40  102 1    
    81   41  103 1    
    82   41  104 1    
    83   41  105 1    
    84   42   43 am   BACKBONE|DICT|INTERRES
    85   42  106 1    
    86   43   44 2    
    87   43   45 1    
    88   45   46 1    
    89   45   49 1    
    90   45  107 1    
    91   46   47 1    
    92   46  108 1    
    93   46  109 1    
    94   47   48 1    
    95   48  110 1    
    96   48  111 1    
    97   49   50 am   BACKBONE|DICT|INTERRES
    98   49  112 1    
    99   50   51 2    
   100   50   52 1    
   101   52   53 1    
   102   52   54 1    
   103   52  113 1    
   104   53  114 1    
   105   53  115 1    
   106   53  116 1    
   107   54   55 am   BACKBONE|DICT|INTERRES
   108   54  117 1    
   109   55   56 2    
   110   55   57 1    
   111   57   58 1    
   112   57   59 1    
   113   57  118 1    
   114   58  119 1    
   115   58  120 1    
   116   58  121 1    
   117   59   60 am   BACKBONE|DICT|INTERRES
   118   59  122 1    
   119   60   61 2    
   120   60   62 1    
   121   62   63 1    
   122   62   64 1    
   123   62  123 1    
   124   63  124 1    
   125   63  125 1    
   126   63  126 1    
   127   64   65 am   BACKBONE|DICT|INTERRES
   128   64  127 1    
   129   65   66 2    
@<TRIPOS>SUBSTRUCTURE
     1 UNK         1 GROUP             0       ****    0 ROOT    
