@<TRIPOS>MOLECULE
3R134
127   129    1
SMALL
USER_CHARGES


@<TRIPOS>ATOM
      1 CA         30.5757  -41.9637  -52.4592 C.3       0 UNK        -0.1968 
      2 C          31.2880  -43.2591  -52.1003 C.2       0 UNK         0.4852 
      3 O          31.0948  -43.7781  -51.0002 O.2       0 UNK        -0.5359 
      4 N          32.0970  -43.8022  -53.0197 N.am      1 UNK        -0.4300 
      5 CA         32.9320  -44.9970  -52.8308 C.3       1 UNK         0.0863 
      6 C6         34.2403  -44.9560  -53.6736 C.3       11 UNK        -0.0953 
      7 S7         35.0842  -43.3271  -53.6141 S.3       11 UNK        -0.2369 
      8 C8         35.2058  -42.7802  -55.3586 C.3       11 UNK         0.0226 
      9 C9         34.0069  -43.1719  -56.2131 C.ar      11 UNK        -0.0699 
     10 C10        34.1501  -44.1643  -57.1876 C.ar      11 UNK        -0.0804 
     11 C11        33.0446  -44.6124  -57.9133 C.ar      11 UNK        -0.0871 
     12 C12        31.7905  -44.0468  -57.6754 C.ar      11 UNK        -0.1008 
     13 C13        31.6365  -43.0465  -56.7119 C.ar      11 UNK        -0.0735 
     14 C14        32.7519  -42.5930  -55.9988 C.ar      11 UNK        -0.0945 
     15 C15        30.2490  -42.5121  -56.4061 C.3       11 UNK         0.0169 
     16 S16        29.3723  -43.6780  -55.3229 S.3       11 UNK        -0.2669 
     17 C17        27.7623  -42.8436  -55.1440 C.3       11 UNK        -0.0850 
     18 CA         26.7801  -43.6479  -54.2532 C.3       10 UNK         0.0855 
     19 C          25.4332  -42.8860  -54.1178 C.2       10 UNK         0.5543 
     20 N          25.2372  -42.1602  -53.0256 N.am      10 UNK        -0.7343 
     21 O          24.5931  -42.9060  -55.0149 O.2       10 UNK        -0.5027 
     22 N          26.6338  -45.0208  -54.7554 N.am      10 UNK        -0.4495 
     23 C          25.8716  -45.9964  -54.2477 C.2       10 UNK         0.4903 
     24 O          25.1825  -45.8716  -53.2347 O.2       10 UNK        -0.4860 
     25 CA         25.9325  -47.3669  -54.9562 C.3       9 UNK         0.0227 
     26 CB         24.5550  -48.0608  -55.0025 C.3       9 UNK        -0.1964 
     27 N          26.5575  -47.3406  -56.2874 N.am      9 UNK        -0.4231 
     28 C          26.1092  -46.7250  -57.3945 C.2       9 UNK         0.5014 
     29 O          25.0805  -46.0518  -57.4506 O.2       9 UNK        -0.5270 
     30 CA         26.9642  -46.8964  -58.6580 C.3       8 UNK         0.0284 
     31 CB         28.2004  -45.9790  -58.6107 C.3       8 UNK        -0.1977 
     32 N          27.3742  -48.2933  -58.8161 N.am      8 UNK        -0.4342 
     33 C          26.6082  -49.2449  -59.3713 C.2       8 UNK         0.5039 
     34 O          25.5263  -49.0216  -59.9160 O.2       8 UNK        -0.5547 
     35 CA         27.1259  -50.6946  -59.3096 C.3       7 UNK         0.0281 
     36 CB         27.9413  -51.0289  -60.5693 C.3       7 UNK        -0.1963 
     37 N          27.9388  -50.9617  -58.1210 N.am      7 UNK        -0.4444 
     38 C          27.4667  -51.0204  -56.8670 C.2       7 UNK         0.5104 
     39 O          26.2705  -50.9714  -56.5832 O.2       7 UNK        -0.5100 
     40 CA         28.5072  -51.1164  -55.7346 C.3       6 UNK         0.0396 
     41 CB         28.6531  -52.5672  -55.2514 C.3       6 UNK        -0.1801 
     42 N          29.8300  -50.5926  -56.0969 N.am      6 UNK        -0.4747 
     43 C          30.0932  -49.3195  -56.4217 C.2       6 UNK         0.5012 
     44 O          29.2314  -48.4374  -56.4483 O.2       6 UNK        -0.5003 
     45 CA         31.5501  -49.0048  -56.8070 C.3       5 UNK         0.0782 
     46 C46        31.7354  -47.5661  -57.3478 C.3       11 UNK        -0.0868 
     47 S47        33.3926  -47.3448  -58.0768 S.3       11 UNK        -0.2515 
     48 C48        33.2025  -45.7419  -58.9177 C.3       11 UNK         0.0199 
     49 N          32.4328  -49.2728  -55.6714 N.am      5 UNK        -0.4607 
     50 C          33.0060  -50.4508  -55.4004 C.2       4 UNK         0.5031 
     51 O          32.8022  -51.4741  -56.0544 O.2       4 UNK        -0.5119 
     52 CA         33.9350  -50.4966  -54.1819 C.3       4 UNK         0.0263 
     53 CB         35.1888  -49.6339  -54.4105 C.3       4 UNK        -0.1967 
     54 N          33.2220  -50.0207  -52.9988 N.am      4 UNK        -0.4237 
     55 C          32.6918  -50.8104  -52.0542 C.2       3 UNK         0.4908 
     56 O          32.8203  -52.0350  -52.0293 O.2       3 UNK        -0.5102 
     57 CA         31.8761  -50.1242  -50.9414 C.3       3 UNK         0.0241 
     58 CB         32.7605  -49.8584  -49.7123 C.3       3 UNK        -0.1971 
     59 N          31.2580  -48.8680  -51.3719 N.am      3 UNK        -0.4139 
     60 C          30.2707  -48.7744  -52.2734 C.2       2 UNK         0.5016 
     61 O          29.6942  -49.7475  -52.7565 O.2       2 UNK        -0.5319 
     62 CA         29.8659  -47.3612  -52.7276 C.3       2 UNK         0.0286 
     63 CB         28.5804  -46.9214  -52.0107 C.3       2 UNK        -0.1963 
     64 N          30.8880  -46.3276  -52.5253 N.am      2 UNK        -0.4790 
     65 C          32.1129  -46.2874  -53.0689 C.2       1 UNK         0.5024 
     66 O          32.5857  -47.2140  -53.7302 O.2       1 UNK        -0.4888 
     67 H67        29.4987  -42.1251  -52.4891 H         1 UNK         0.0892 
     68 H68        30.8902  -41.5803  -53.4288 H         1 UNK         0.0892 
     69 H69        30.7859  -41.2006  -51.7106 H         1 UNK         0.0892 
     70 H70        32.1692  -43.3809  -53.9347 H         1 UNK         0.3107 
     71 H71        33.2397  -45.0247  -51.7833 H         1 UNK         0.0773 
     72 H72        34.0449  -45.2484  -54.7039 H         1 UNK         0.0680 
     73 H73        34.9405  -45.7033  -53.2966 H         1 UNK         0.0680 
     74 H74        35.3242  -41.6961  -55.3793 H         1 UNK         0.0650 
     75 H75        36.1239  -43.1915  -55.7811 H         1 UNK         0.0650 
     76 H76        35.1148  -44.6250  -57.3517 H         1 UNK         0.1397 
     77 H77        30.9246  -44.4090  -58.2129 H         1 UNK         0.1363 
     78 H78        32.6411  -41.8218  -55.2490 H         1 UNK         0.1355 
     79 H79        29.6884  -42.3781  -57.3326 H         1 UNK         0.0707 
     80 H80        30.3068  -41.5332  -55.9280 H         1 UNK         0.0707 
     81 H81        27.3383  -42.6885  -56.1385 H         1 UNK         0.1034 
     82 H82        27.9328  -41.8506  -54.7231 H         1 UNK         0.1034 
     83 H83        27.2215  -43.7330  -53.2582 H         1 UNK         0.0482 
     84 H84        25.9233  -42.1296  -52.2877 H         1 UNK         0.3460 
     85 H85        24.3765  -41.6443  -52.9289 H         1 UNK         0.3460 
     86 H86        27.1726  -45.2313  -55.5811 H         1 UNK         0.2989 
     87 H87        26.5875  -47.9888  -54.3448 H         1 UNK         0.0559 
     88 H88        23.8172  -47.4624  -55.5375 H         1 UNK         0.0848 
     89 H89        24.1669  -48.2298  -53.9974 H         1 UNK         0.0848 
     90 H90        24.6166  -49.0332  -55.4909 H         1 UNK         0.0848 
     91 H91        27.4556  -47.8162  -56.3489 H         1 UNK         0.3144 
     92 H92        26.3617  -46.6009  -59.5200 H         1 UNK         0.0727 
     93 H93        27.9017  -44.9308  -58.5654 H         1 UNK         0.0790 
     94 H94        28.8188  -46.1000  -59.5002 H         1 UNK         0.0790 
     95 H95        28.8262  -46.1699  -57.7387 H         1 UNK         0.0790 
     96 H96        28.2237  -48.5695  -58.3419 H         1 UNK         0.3215 
     97 H97        26.2554  -51.3540  -59.2800 H         1 UNK         0.0863 
     98 H98        28.2523  -52.0738  -60.5759 H         1 UNK         0.0808 
     99 H99        28.8358  -50.4100  -60.6506 H         1 UNK         0.0808 
    100 H100       27.3490  -50.8640  -61.4706 H         1 UNK         0.0808 
    101 H101       28.9348  -51.0531  -58.2556 H         1 UNK         0.3118 
    102 H102       28.1320  -50.5165  -54.9029 H         1 UNK         0.0546 
    103 H103       27.6880  -52.9777  -54.9512 H         1 UNK         0.0828 
    104 H104       29.3125  -52.6291  -54.3851 H         1 UNK         0.0828 
    105 H105       29.0564  -53.2153  -56.0304 H         1 UNK         0.0828 
    106 H106       30.6058  -51.2446  -56.0730 H         1 UNK         0.3005 
    107 H107       31.8014  -49.6876  -57.6224 H         1 UNK         0.1257 
    108 H108       31.5857  -46.8293  -56.5556 H         1 UNK         0.0775 
    109 H109       30.9995  -47.3475  -58.1235 H         1 UNK         0.0775 
    110 H110       34.0824  -45.5581  -59.5359 H         1 UNK         0.0840 
    111 H111       32.3520  -45.7827  -59.6001 H         1 UNK         0.0840 
    112 H112       32.6051  -48.4837  -55.0534 H         1 UNK         0.2987 
    113 H113       34.2589  -51.5305  -54.0434 H         1 UNK         0.0785 
    114 H114       35.7257  -49.9562  -55.3036 H         1 UNK         0.0798 
    115 H115       35.8793  -49.7141  -53.5709 H         1 UNK         0.0798 
    116 H116       34.9449  -48.5784  -54.5401 H         1 UNK         0.0798 
    117 H117       33.0222  -49.0269  -52.9695 H         1 UNK         0.3079 
    118 H118       31.0779  -50.8101  -50.6491 H         1 UNK         0.0794 
    119 H119       33.5715  -49.1651  -49.9391 H         1 UNK         0.0786 
    120 H120       33.2136  -50.7828  -49.3512 H         1 UNK         0.0786 
    121 H121       32.1808  -49.4412  -48.8886 H         1 UNK         0.0786 
    122 H122       31.6517  -48.0117  -51.0101 H         1 UNK         0.3032 
    123 H123       29.6641  -47.4156  -53.8000 H         1 UNK         0.1094 
    124 H124       28.2352  -45.9540  -52.3747 H         1 UNK         0.0794 
    125 H125       27.7742  -47.6380  -52.1732 H         1 UNK         0.0794 
    126 H126       28.7289  -46.8381  -50.9334 H         1 UNK         0.0794 
    127 H127       30.6186  -45.5255  -51.9646 H         1 UNK         0.3016 
@<TRIPOS>BOND
     1    1    2 1    
     2    1   67 1    
     3    1   68 1    
     4    1   69 1    
     5    2    3 2    
     6    2    4 am   BACKBONE|DICT|INTERRES
     7    4    5 1    
     8    4   70 1    
     9    5    6 1    
    10    5   65 1    
    11    5   71 1    
    12    6    7 1    
    13    6   72 1    
    14    6   73 1    
    15    7    8 1    
    16    8    9 1    
    17    8   74 1    
    18    8   75 1    
    19    9   10 ar   
    20    9   14 ar   
    21   10   11 ar   
    22   10   76 1    
    23   11   12 ar   
    24   11   48 1    
    25   12   13 ar   
    26   12   77 1    
    27   13   14 ar   
    28   13   15 1    
    29   14   78 1    
    30   15   16 1    
    31   15   79 1    
    32   15   80 1    
    33   16   17 1    
    34   17   18 1    
    35   17   81 1    
    36   17   82 1    
    37   18   19 1    
    38   18   22 1    
    39   18   83 1    
    40   19   20 am   BACKBONE|DICT|INTERRES
    41   19   21 2    
    42   20   84 1    
    43   20   85 1    
    44   22   23 am   BACKBONE|DICT|INTERRES
    45   22   86 1    
    46   23   24 2    
    47   23   25 1    
    48   25   26 1    
    49   25   27 1    
    50   25   87 1    
    51   26   88 1    
    52   26   89 1    
    53   26   90 1    
    54   27   28 am   BACKBONE|DICT|INTERRES
    55   27   91 1    
    56   28   29 2    
    57   28   30 1    
    58   30   31 1    
    59   30   32 1    
    60   30   92 1    
    61   31   93 1    
    62   31   94 1    
    63   31   95 1    
    64   32   33 am   BACKBONE|DICT|INTERRES
    65   32   96 1    
    66   33   34 2    
    67   33   35 1    
    68   35   36 1    
    69   35   37 1    
    70   35   97 1    
    71   36   98 1    
    72   36   99 1    
    73   36  100 1    
    74   37   38 am   BACKBONE|DICT|INTERRES
    75   37  101 1    
    76   38   39 2    
    77   38   40 1    
    78   40   41 1    
    79   40   42 1    
    80   40  102 1    
    81   41  103 1    
    82   41  104 1    
    83   41  105 1    
    84   42   43 am   BACKBONE|DICT|INTERRES
    85   42  106 1    
    86   43   44 2    
    87   43   45 1    
    88   45   46 1    
    89   45   49 1    
    90   45  107 1    
    91   46   47 1    
    92   46  108 1    
    93   46  109 1    
    94   47   48 1    
    95   48  110 1    
    96   48  111 1    
    97   49   50 am   BACKBONE|DICT|INTERRES
    98   49  112 1    
    99   50   51 2    
   100   50   52 1    
   101   52   53 1    
   102   52   54 1    
   103   52  113 1    
   104   53  114 1    
   105   53  115 1    
   106   53  116 1    
   107   54   55 am   BACKBONE|DICT|INTERRES
   108   54  117 1    
   109   55   56 2    
   110   55   57 1    
   111   57   58 1    
   112   57   59 1    
   113   57  118 1    
   114   58  119 1    
   115   58  120 1    
   116   58  121 1    
   117   59   60 am   BACKBONE|DICT|INTERRES
   118   59  122 1    
   119   60   61 2    
   120   60   62 1    
   121   62   63 1    
   122   62   64 1    
   123   62  123 1    
   124   63  124 1    
   125   63  125 1    
   126   63  126 1    
   127   64   65 am   BACKBONE|DICT|INTERRES
   128   64  127 1    
   129   65   66 2    
@<TRIPOS>SUBSTRUCTURE
     1 UNK         1 GROUP             0       ****    0 ROOT    
