@<TRIPOS>MOLECULE
3R134
127   129    1
SMALL
USER_CHARGES


@<TRIPOS>ATOM
      1 CA         35.3087  -43.4819  -58.1539 C.3       0 UNK        -0.1968 
      2 C          34.4168  -44.7119  -58.0697 C.2       0 UNK         0.4852 
      3 O          34.1954  -45.3772  -59.0821 O.2       0 UNK        -0.5359 
      4 N          33.9075  -45.0209  -56.8695 N.am      1 UNK        -0.4300 
      5 CA         33.0291  -46.1662  -56.6000 C.3       1 UNK         0.0863 
      6 C6         32.1633  -45.9343  -55.3340 C.3       11 UNK        -0.0953 
      7 S7         33.1332  -45.7629  -53.7909 S.3       11 UNK        -0.2369 
      8 C8         32.6885  -44.0868  -53.2396 C.3       11 UNK         0.0226 
      9 C9         31.2585  -44.0409  -52.7268 C.ar      11 UNK        -0.0699 
     10 C10        30.9442  -44.6007  -51.4853 C.ar      11 UNK        -0.0804 
     11 C11        29.6219  -44.6191  -51.0320 C.ar      11 UNK        -0.0871 
     12 C12        28.6181  -44.0321  -51.8104 C.ar      11 UNK        -0.1008 
     13 C13        28.9248  -43.4608  -53.0484 C.ar      11 UNK        -0.0735 
     14 C14        30.2466  -43.4668  -53.5014 C.ar      11 UNK        -0.0945 
     15 C15        27.8316  -42.8454  -53.9057 C.3       11 UNK         0.0169 
     16 S16        27.0712  -44.0853  -55.0001 S.3       11 UNK        -0.2669 
     17 C17        26.1184  -42.9989  -56.1204 C.3       11 UNK        -0.0850 
     18 CA         26.6781  -42.9328  -57.5668 C.3       10 UNK         0.0855 
     19 C          28.0995  -42.2960  -57.6306 C.2       10 UNK         0.5543 
     20 N          29.1235  -42.9971  -58.1022 N.am      10 UNK        -0.7343 
     21 O          28.2689  -41.1389  -57.2542 O.2       10 UNK        -0.5027 
     22 N          26.5205  -44.2193  -58.2659 N.am      10 UNK        -0.4495 
     23 C          26.5306  -44.3819  -59.5947 C.2       10 UNK         0.4903 
     24 O          26.6861  -43.4535  -60.3898 O.2       10 UNK        -0.4860 
     25 CA         26.3325  -45.8197  -60.1217 C.3       9 UNK         0.0227 
     26 CB         26.4295  -45.9065  -61.6571 C.3       9 UNK        -0.1964 
     27 N          27.2776  -46.7748  -59.5335 N.am      9 UNK        -0.4231 
     28 C          27.1716  -47.3133  -58.3128 C.2       9 UNK         0.5014 
     29 O          26.2666  -47.0303  -57.5235 O.2       9 UNK        -0.5270 
     30 CA         28.2881  -48.2839  -57.8988 C.3       8 UNK         0.0284 
     31 CB         29.5314  -47.4998  -57.4438 C.3       8 UNK        -0.1977 
     32 N          27.8246  -49.1470  -56.8104 N.am      8 UNK        -0.4342 
     33 C          27.1663  -50.3020  -56.9941 C.2       8 UNK         0.5039 
     34 O          27.0140  -50.8229  -58.1006 O.2       8 UNK        -0.5547 
     35 CA         26.5609  -51.0084  -55.7632 C.3       7 UNK         0.0281 
     36 CB         27.3420  -52.2824  -55.4052 C.3       7 UNK        -0.1963 
     37 N          26.4745  -50.1456  -54.5843 N.am      7 UNK        -0.4444 
     38 C          25.5126  -49.2309  -54.3948 C.2       7 UNK         0.5104 
     39 O          24.5329  -49.1126  -55.1315 O.2       7 UNK        -0.5100 
     40 CA         25.6526  -48.2822  -53.1873 C.3       6 UNK         0.0396 
     41 CB         24.6608  -48.6716  -52.0794 C.3       6 UNK        -0.1801 
     42 N          26.9978  -48.1979  -52.6088 N.am      6 UNK        -0.4747 
     43 C          28.1049  -47.7954  -53.2470 C.2       6 UNK         0.5012 
     44 O          28.1297  -47.5204  -54.4453 O.2       6 UNK        -0.5003 
     45 CA         29.4251  -47.7312  -52.4480 C.3       5 UNK         0.0782 
     46 C46        29.3205  -47.9321  -50.9045 C.3       11 UNK        -0.0868 
     47 S47        28.2120  -46.7764  -50.0160 S.3       11 UNK        -0.2515 
     48 C48        29.2699  -45.3197  -49.7285 C.3       11 UNK         0.0199 
     49 N          30.4346  -48.6171  -53.0397 N.am      5 UNK        -0.4607 
     50 C          30.3181  -49.9366  -53.2570 C.2       4 UNK         0.5031 
     51 O          29.3039  -50.5865  -52.9987 O.2       4 UNK        -0.5119 
     52 CA         31.5312  -50.6624  -53.8684 C.3       4 UNK         0.0263 
     53 CB         31.2960  -50.9565  -55.3585 C.3       4 UNK        -0.1967 
     54 N          32.7870  -49.9196  -53.7167 N.am      4 UNK        -0.4237 
     55 C          33.4968  -49.8681  -52.5776 C.2       3 UNK         0.4908 
     56 O          33.1448  -50.4383  -51.5438 O.2       3 UNK        -0.5102 
     57 CA         34.7930  -49.0287  -52.5580 C.3       3 UNK         0.0241 
     58 CB         35.9209  -49.7091  -51.7526 C.3       3 UNK        -0.1971 
     59 N          35.2673  -48.6043  -53.8814 N.am      3 UNK        -0.4139 
     60 C          35.7260  -49.3676  -54.8864 C.2       2 UNK         0.5016 
     61 O          35.8826  -50.5871  -54.8120 O.2       2 UNK        -0.5319 
     62 CA         36.0197  -48.6278  -56.2108 C.3       2 UNK         0.0286 
     63 CB         36.0192  -49.5708  -57.4332 C.3       2 UNK        -0.1963 
     64 N          35.1222  -47.4821  -56.4386 N.am      2 UNK        -0.4790 
     65 C          33.7801  -47.5137  -56.5164 C.2       1 UNK         0.5024 
     66 O          33.1243  -48.5524  -56.4492 O.2       1 UNK        -0.4888 
     67 H67        35.4204  -42.9909  -57.1873 H         1 UNK         0.0892 
     68 H68        36.3003  -43.7608  -58.5093 H         1 UNK         0.0892 
     69 H69        34.8866  -42.7605  -58.8531 H         1 UNK         0.0892 
     70 H70        34.1258  -44.4440  -56.0695 H         1 UNK         0.3107 
     71 H71        32.3424  -46.2600  -57.4439 H         1 UNK         0.0773 
     72 H72        31.4546  -46.7531  -55.1988 H         1 UNK         0.0680 
     73 H73        31.5461  -45.0481  -55.4825 H         1 UNK         0.0680 
     74 H74        33.3686  -43.7851  -52.4418 H         1 UNK         0.0650 
     75 H75        32.8374  -43.3784  -54.0558 H         1 UNK         0.0650 
     76 H76        31.7257  -45.0601  -50.8953 H         1 UNK         0.1397 
     77 H77        27.5926  -44.0499  -51.4666 H         1 UNK         0.1363 
     78 H78        30.4824  -43.0371  -54.4655 H         1 UNK         0.1355 
     79 H79        27.0619  -42.4000  -53.2736 H         1 UNK         0.0707 
     80 H80        28.2481  -42.0335  -54.5039 H         1 UNK         0.0707 
     81 H81        26.0545  -41.9946  -55.6974 H         1 UNK         0.1034 
     82 H82        25.0897  -43.3617  -56.1441 H         1 UNK         0.1034 
     83 H83        26.0387  -42.2271  -58.1010 H         1 UNK         0.0482 
     84 H84        30.0351  -42.5717  -58.1484 H         1 UNK         0.3460 
     85 H85        28.9851  -43.9420  -58.4189 H         1 UNK         0.3460 
     86 H86        26.4081  -45.0440  -57.6833 H         1 UNK         0.2989 
     87 H87        25.3199  -46.1191  -59.8432 H         1 UNK         0.0559 
     88 H88        27.4153  -45.6105  -62.0182 H         1 UNK         0.0848 
     89 H89        25.6982  -45.2520  -62.1335 H         1 UNK         0.0848 
     90 H90        26.2310  -46.9180  -62.0118 H         1 UNK         0.0848 
     91 H91        28.0714  -47.0274  -60.1051 H         1 UNK         0.3144 
     92 H92        28.5624  -48.8973  -58.7598 H         1 UNK         0.0727 
     93 H93        29.2975  -46.7924  -56.6473 H         1 UNK         0.0790 
     94 H94        29.9549  -46.9259  -58.2685 H         1 UNK         0.0790 
     95 H95        30.3136  -48.1662  -57.0831 H         1 UNK         0.0790 
     96 H96        27.8347  -48.7205  -55.8863 H         1 UNK         0.3215 
     97 H97        25.5510  -51.3144  -56.0454 H         1 UNK         0.0863 
     98 H98        28.3387  -52.0540  -55.0343 H         1 UNK         0.0808 
     99 H99        27.4547  -52.9333  -56.2733 H         1 UNK         0.0808 
    100 H100       26.8262  -52.8568  -54.6356 H         1 UNK         0.0808 
    101 H101       27.2480  -50.1801  -53.9300 H         1 UNK         0.3118 
    102 H102       25.3937  -47.2817  -53.5404 H         1 UNK         0.0546 
    103 H103       24.6725  -47.9494  -51.2628 H         1 UNK         0.0828 
    104 H104       24.8865  -49.6546  -51.6643 H         1 UNK         0.0828 
    105 H105       23.6398  -48.7064  -52.4623 H         1 UNK         0.0828 
    106 H106       27.0768  -48.3986  -51.6213 H         1 UNK         0.3005 
    107 H107       29.7962  -46.7265  -52.6357 H         1 UNK         0.1257 
    108 H108       30.3143  -47.8481  -50.4617 H         1 UNK         0.0775 
    109 H109       28.9916  -48.9483  -50.6807 H         1 UNK         0.0775 
    110 H110       28.7405  -44.6202  -49.0801 H         1 UNK         0.0840 
    111 H111       30.1662  -45.6237  -49.1856 H         1 UNK         0.0840 
    112 H112       31.2971  -48.1717  -53.3153 H         1 UNK         0.2987 
    113 H113       31.6360  -51.6190  -53.3519 H         1 UNK         0.0785 
    114 H114       32.1905  -51.3614  -55.8327 H         1 UNK         0.0798 
    115 H115       30.5053  -51.6925  -55.4921 H         1 UNK         0.0798 
    116 H116       31.0028  -50.0618  -55.9066 H         1 UNK         0.0798 
    117 H117       33.1299  -49.4413  -54.5428 H         1 UNK         0.3079 
    118 H118       34.5327  -48.1084  -52.0329 H         1 UNK         0.0794 
    119 H119       36.8218  -49.0957  -51.7345 H         1 UNK         0.0786 
    120 H120       36.1852  -50.6827  -52.1660 H         1 UNK         0.0786 
    121 H121       35.6211  -49.8697  -50.7163 H         1 UNK         0.0786 
    122 H122       35.1673  -47.6161  -54.0707 H         1 UNK         0.3032 
    123 H123       37.0273  -48.2209  -56.1088 H         1 UNK         0.1094 
    124 H124       36.7816  -50.3442  -57.3316 H         1 UNK         0.0794 
    125 H125       35.0603  -50.0756  -57.5561 H         1 UNK         0.0794 
    126 H126       36.2322  -49.0271  -58.3536 H         1 UNK         0.0794 
    127 H127       35.5682  -46.5768  -56.4924 H         1 UNK         0.3016 
@<TRIPOS>BOND
     1    1    2 1    
     2    1   67 1    
     3    1   68 1    
     4    1   69 1    
     5    2    3 2    
     6    2    4 am   BACKBONE|DICT|INTERRES
     7    4    5 1    
     8    4   70 1    
     9    5    6 1    
    10    5   65 1    
    11    5   71 1    
    12    6    7 1    
    13    6   72 1    
    14    6   73 1    
    15    7    8 1    
    16    8    9 1    
    17    8   74 1    
    18    8   75 1    
    19    9   10 ar   
    20    9   14 ar   
    21   10   11 ar   
    22   10   76 1    
    23   11   12 ar   
    24   11   48 1    
    25   12   13 ar   
    26   12   77 1    
    27   13   14 ar   
    28   13   15 1    
    29   14   78 1    
    30   15   16 1    
    31   15   79 1    
    32   15   80 1    
    33   16   17 1    
    34   17   18 1    
    35   17   81 1    
    36   17   82 1    
    37   18   19 1    
    38   18   22 1    
    39   18   83 1    
    40   19   20 am   BACKBONE|DICT|INTERRES
    41   19   21 2    
    42   20   84 1    
    43   20   85 1    
    44   22   23 am   BACKBONE|DICT|INTERRES
    45   22   86 1    
    46   23   24 2    
    47   23   25 1    
    48   25   26 1    
    49   25   27 1    
    50   25   87 1    
    51   26   88 1    
    52   26   89 1    
    53   26   90 1    
    54   27   28 am   BACKBONE|DICT|INTERRES
    55   27   91 1    
    56   28   29 2    
    57   28   30 1    
    58   30   31 1    
    59   30   32 1    
    60   30   92 1    
    61   31   93 1    
    62   31   94 1    
    63   31   95 1    
    64   32   33 am   BACKBONE|DICT|INTERRES
    65   32   96 1    
    66   33   34 2    
    67   33   35 1    
    68   35   36 1    
    69   35   37 1    
    70   35   97 1    
    71   36   98 1    
    72   36   99 1    
    73   36  100 1    
    74   37   38 am   BACKBONE|DICT|INTERRES
    75   37  101 1    
    76   38   39 2    
    77   38   40 1    
    78   40   41 1    
    79   40   42 1    
    80   40  102 1    
    81   41  103 1    
    82   41  104 1    
    83   41  105 1    
    84   42   43 am   BACKBONE|DICT|INTERRES
    85   42  106 1    
    86   43   44 2    
    87   43   45 1    
    88   45   46 1    
    89   45   49 1    
    90   45  107 1    
    91   46   47 1    
    92   46  108 1    
    93   46  109 1    
    94   47   48 1    
    95   48  110 1    
    96   48  111 1    
    97   49   50 am   BACKBONE|DICT|INTERRES
    98   49  112 1    
    99   50   51 2    
   100   50   52 1    
   101   52   53 1    
   102   52   54 1    
   103   52  113 1    
   104   53  114 1    
   105   53  115 1    
   106   53  116 1    
   107   54   55 am   BACKBONE|DICT|INTERRES
   108   54  117 1    
   109   55   56 2    
   110   55   57 1    
   111   57   58 1    
   112   57   59 1    
   113   57  118 1    
   114   58  119 1    
   115   58  120 1    
   116   58  121 1    
   117   59   60 am   BACKBONE|DICT|INTERRES
   118   59  122 1    
   119   60   61 2    
   120   60   62 1    
   121   62   63 1    
   122   62   64 1    
   123   62  123 1    
   124   63  124 1    
   125   63  125 1    
   126   63  126 1    
   127   64   65 am   BACKBONE|DICT|INTERRES
   128   64  127 1    
   129   65   66 2    
@<TRIPOS>SUBSTRUCTURE
     1 UNK         1 GROUP             0       ****    0 ROOT    
