@<TRIPOS>MOLECULE
3R134
127   129    1
SMALL
USER_CHARGES


@<TRIPOS>ATOM
      1 CA         33.1924  -46.8458  -49.9354 C.3       0 UNK        -0.1968 
      2 C          34.4140  -46.8616  -50.8420 C.2       0 UNK         0.4852 
      3 O          35.4798  -47.3167  -50.4245 O.2       0 UNK        -0.5359 
      4 N          34.2676  -46.3629  -52.0758 N.am      1 UNK        -0.4300 
      5 CA         35.3081  -46.3639  -53.1123 C.3       1 UNK         0.0863 
      6 C6         35.1209  -45.2199  -54.1416 C.3       11 UNK        -0.0953 
      7 S7         33.4109  -45.0229  -54.7562 S.3       11 UNK        -0.2369 
      8 C8         33.0656  -43.3338  -54.1757 C.3       11 UNK         0.0226 
      9 C9         31.6702  -42.8819  -54.5688 C.ar      11 UNK        -0.0699 
     10 C10        30.6431  -42.8515  -53.6219 C.ar      11 UNK        -0.0804 
     11 C11        29.3529  -42.4539  -53.9869 C.ar      11 UNK        -0.0871 
     12 C12        29.1104  -42.0341  -55.2999 C.ar      11 UNK        -0.1008 
     13 C13        30.1352  -42.0445  -56.2522 C.ar      11 UNK        -0.0735 
     14 C14        31.4104  -42.4791  -55.8811 C.ar      11 UNK        -0.0945 
     15 C15        29.8854  -41.5593  -57.6742 C.3       11 UNK         0.0169 
     16 S16        29.1760  -42.8581  -58.7372 S.3       11 UNK        -0.2669 
     17 C17        27.3960  -42.7234  -58.3502 C.3       11 UNK        -0.0850 
     18 CA         26.8780  -43.9181  -57.4994 C.3       10 UNK         0.0855 
     19 C          25.4721  -43.6557  -56.8792 C.2       10 UNK         0.5543 
     20 N          24.5696  -44.6289  -56.8209 N.am      10 UNK        -0.7343 
     21 O          25.2050  -42.5553  -56.4032 O.2       10 UNK        -0.5027 
     22 N          27.0185  -45.2268  -58.1561 N.am      10 UNK        -0.4495 
     23 C          26.4540  -45.6064  -59.3111 C.2       10 UNK         0.4903 
     24 O          25.8077  -44.8619  -60.0483 O.2       10 UNK        -0.4860 
     25 CA         26.5979  -47.0889  -59.6947 C.3       9 UNK         0.0227 
     26 CB         27.8096  -47.2849  -60.6183 C.3       9 UNK        -0.1964 
     27 N          26.6977  -47.9771  -58.5294 N.am      9 UNK        -0.4231 
     28 C          25.7030  -48.1760  -57.6478 C.2       9 UNK         0.5014 
     29 O          24.6019  -47.6316  -57.7506 O.2       9 UNK        -0.5270 
     30 CA         25.9602  -49.0716  -56.4190 C.3       8 UNK         0.0284 
     31 CB         24.8597  -50.1382  -56.2378 C.3       8 UNK        -0.1977 
     32 N          27.3005  -49.6632  -56.3534 N.am      8 UNK        -0.4342 
     33 C          27.8390  -50.6171  -57.1257 C.2       8 UNK         0.5039 
     34 O          27.2407  -51.2016  -58.0299 O.2       8 UNK        -0.5547 
     35 CA         29.3227  -50.9240  -56.8439 C.3       7 UNK         0.0281 
     36 CB         29.9903  -51.7873  -57.9360 C.3       7 UNK        -0.1963 
     37 N          30.1006  -49.7025  -56.5778 N.am      7 UNK        -0.4444 
     38 C          30.2797  -48.6805  -57.4299 C.2       7 UNK         0.5104 
     39 O          29.8395  -48.6691  -58.5788 O.2       7 UNK        -0.5100 
     40 CA         31.0324  -47.4518  -56.8843 C.3       6 UNK         0.0396 
     41 CB         31.0154  -46.2578  -57.8634 C.3       6 UNK        -0.1801 
     42 N          30.5546  -47.0246  -55.5650 N.am      6 UNK        -0.4747 
     43 C          29.3136  -46.6386  -55.2357 C.2       6 UNK         0.5012 
     44 O          28.3429  -46.7173  -55.9916 O.2       6 UNK        -0.5003 
     45 CA         29.1394  -46.0791  -53.8113 C.3       5 UNK         0.0782 
     46 C46        27.8622  -45.2122  -53.6620 C.3       11 UNK        -0.0868 
     47 S47        27.9738  -44.1251  -52.2021 S.3       11 UNK        -0.2515 
     48 C48        28.2165  -42.4816  -52.9682 C.3       11 UNK         0.0199 
     49 N          29.1659  -47.1490  -52.8141 N.am      5 UNK        -0.4607 
     50 C          30.2485  -47.8100  -52.3912 C.2       4 UNK         0.5031 
     51 O          31.3902  -47.5961  -52.8114 O.2       4 UNK        -0.5119 
     52 CA         30.0322  -48.8774  -51.2990 C.3       4 UNK         0.0263 
     53 CB         28.5538  -49.1179  -50.9108 C.3       4 UNK        -0.1967 
     54 N          30.6931  -50.1348  -51.6539 N.am      4 UNK        -0.4237 
     55 C          30.4325  -50.9138  -52.7124 C.2       3 UNK         0.4908 
     56 O          29.5229  -50.7111  -53.5186 O.2       3 UNK        -0.5102 
     57 CA         31.4327  -52.0590  -52.9548 C.3       3 UNK         0.0241 
     58 CB         30.8148  -53.2433  -53.7195 C.3       3 UNK        -0.1971 
     59 N          32.5771  -51.5379  -53.7027 N.am      3 UNK        -0.4139 
     60 C          33.5064  -50.7281  -53.1791 C.2       2 UNK         0.5016 
     61 O          33.6152  -50.5195  -51.9675 O.2       2 UNK        -0.5319 
     62 CA         34.4221  -49.9723  -54.1505 C.3       2 UNK         0.0286 
     63 CB         34.0140  -50.0728  -55.6365 C.3       2 UNK        -0.1963 
     64 N          34.4170  -48.5759  -53.7255 N.am      2 UNK        -0.4790 
     65 C          35.4571  -47.7389  -53.7980 C.2       1 UNK         0.5024 
     66 O          36.5184  -48.0214  -54.3568 O.2       1 UNK        -0.4888 
     67 H67        32.3438  -46.3474  -50.4037 H         1 UNK         0.0892 
     68 H68        33.4200  -46.3244  -49.0062 H         1 UNK         0.0892 
     69 H69        32.8981  -47.8662  -49.6921 H         1 UNK         0.0892 
     70 H70        33.3595  -46.0377  -52.3805 H         1 UNK         0.3107 
     71 H71        36.2654  -46.1824  -52.6183 H         1 UNK         0.0773 
     72 H72        35.7841  -45.3485  -54.9994 H         1 UNK         0.0680 
     73 H73        35.4400  -44.2847  -53.6793 H         1 UNK         0.0680 
     74 H74        33.1905  -43.2923  -53.0924 H         1 UNK         0.0650 
     75 H75        33.8011  -42.6483  -54.5999 H         1 UNK         0.0650 
     76 H76        30.8384  -43.1631  -52.6047 H         1 UNK         0.1397 
     77 H77        28.1211  -41.7026  -55.5837 H         1 UNK         0.1363 
     78 H78        32.2072  -42.4978  -56.6122 H         1 UNK         0.1355 
     79 H79        30.8254  -41.2316  -58.1208 H         1 UNK         0.0707 
     80 H80        29.2421  -40.6784  -57.6668 H         1 UNK         0.0707 
     81 H81        26.8417  -42.6424  -59.2854 H         1 UNK         0.1034 
     82 H82        27.2194  -41.7781  -57.8360 H         1 UNK         0.1034 
     83 H83        27.5384  -43.9860  -56.6389 H         1 UNK         0.0482 
     84 H84        24.7592  -45.5442  -57.2088 H         1 UNK         0.3460 
     85 H85        23.6726  -44.4397  -56.4032 H         1 UNK         0.3460 
     86 H86        27.5048  -45.9246  -57.6010 H         1 UNK         0.2989 
     87 H87        25.7026  -47.3773  -60.2494 H         1 UNK         0.0559 
     88 H88        27.9552  -48.3347  -60.8735 H         1 UNK         0.0848 
     89 H89        28.7290  -46.9179  -60.1611 H         1 UNK         0.0848 
     90 H90        27.6760  -46.7379  -61.5524 H         1 UNK         0.0848 
     91 H91        27.5908  -48.4295  -58.3744 H         1 UNK         0.3144 
     92 H92        25.9041  -48.4014  -55.5598 H         1 UNK         0.0727 
     93 H93        25.0351  -50.7432  -55.3483 H         1 UNK         0.0790 
     94 H94        24.7978  -50.8090  -57.0950 H         1 UNK         0.0790 
     95 H95        23.8800  -49.6727  -56.1231 H         1 UNK         0.0790 
     96 H96        27.9143  -49.2326  -55.6751 H         1 UNK         0.3215 
     97 H97        29.3252  -51.5086  -55.9264 H         1 UNK         0.0863 
     98 H98        31.0321  -51.9971  -57.6944 H         1 UNK         0.0808 
     99 H99        29.9620  -51.3034  -58.9126 H         1 UNK         0.0808 
    100 H100       29.4820  -52.7470  -58.0370 H         1 UNK         0.0808 
    101 H101       30.4390  -49.5972  -55.6307 H         1 UNK         0.3118 
    102 H102       32.0723  -47.7527  -56.7555 H         1 UNK         0.0546 
    103 H103       30.0009  -45.9160  -58.0707 H         1 UNK         0.0828 
    104 H104       31.4686  -46.5266  -58.8181 H         1 UNK         0.0828 
    105 H105       31.5751  -45.4108  -57.4662 H         1 UNK         0.0828 
    106 H106       31.2554  -46.9924  -54.8316 H         1 UNK         0.3005 
    107 H107       30.0061  -45.4403  -53.6376 H         1 UNK         0.1257 
    108 H108       27.6995  -44.5875  -54.5377 H         1 UNK         0.0775 
    109 H109       26.9715  -45.8375  -53.5786 H         1 UNK         0.0775 
    110 H110       27.2768  -42.1749  -53.4308 H         1 UNK         0.0840 
    111 H111       28.4238  -41.7525  -52.1840 H         1 UNK         0.0840 
    112 H112       28.2727  -47.4007  -52.4181 H         1 UNK         0.2987 
    113 H113       30.5450  -48.5039  -50.4121 H         1 UNK         0.0785 
    114 H114       28.4755  -49.8780  -50.1333 H         1 UNK         0.0798 
    115 H115       27.9513  -49.4534  -51.7559 H         1 UNK         0.0798 
    116 H116       28.0956  -48.2123  -50.5110 H         1 UNK         0.0798 
    117 H117       31.5506  -50.3300  -51.1502 H         1 UNK         0.3079 
    118 H118       31.7709  -52.4311  -51.9850 H         1 UNK         0.0794 
    119 H119       29.9009  -53.5881  -53.2339 H         1 UNK         0.0786 
    120 H120       31.5019  -54.0890  -53.7520 H         1 UNK         0.0786 
    121 H121       30.5631  -52.9853  -54.7469 H         1 UNK         0.0786 
    122 H122       32.5532  -51.6557  -54.7047 H         1 UNK         0.3032 
    123 H123       35.4239  -50.3903  -54.0273 H         1 UNK         0.1094 
    124 H124       34.0875  -51.0981  -56.0012 H         1 UNK         0.0794 
    125 H125       32.9941  -49.7277  -55.8022 H         1 UNK         0.0794 
    126 H126       34.6699  -49.4690  -56.2641 H         1 UNK         0.0794 
    127 H127       33.5972  -48.2828  -53.2054 H         1 UNK         0.3016 
@<TRIPOS>BOND
     1    1    2 1    
     2    1   67 1    
     3    1   68 1    
     4    1   69 1    
     5    2    3 2    
     6    2    4 am   BACKBONE|DICT|INTERRES
     7    4    5 1    
     8    4   70 1    
     9    5    6 1    
    10    5   65 1    
    11    5   71 1    
    12    6    7 1    
    13    6   72 1    
    14    6   73 1    
    15    7    8 1    
    16    8    9 1    
    17    8   74 1    
    18    8   75 1    
    19    9   10 ar   
    20    9   14 ar   
    21   10   11 ar   
    22   10   76 1    
    23   11   12 ar   
    24   11   48 1    
    25   12   13 ar   
    26   12   77 1    
    27   13   14 ar   
    28   13   15 1    
    29   14   78 1    
    30   15   16 1    
    31   15   79 1    
    32   15   80 1    
    33   16   17 1    
    34   17   18 1    
    35   17   81 1    
    36   17   82 1    
    37   18   19 1    
    38   18   22 1    
    39   18   83 1    
    40   19   20 am   BACKBONE|DICT|INTERRES
    41   19   21 2    
    42   20   84 1    
    43   20   85 1    
    44   22   23 am   BACKBONE|DICT|INTERRES
    45   22   86 1    
    46   23   24 2    
    47   23   25 1    
    48   25   26 1    
    49   25   27 1    
    50   25   87 1    
    51   26   88 1    
    52   26   89 1    
    53   26   90 1    
    54   27   28 am   BACKBONE|DICT|INTERRES
    55   27   91 1    
    56   28   29 2    
    57   28   30 1    
    58   30   31 1    
    59   30   32 1    
    60   30   92 1    
    61   31   93 1    
    62   31   94 1    
    63   31   95 1    
    64   32   33 am   BACKBONE|DICT|INTERRES
    65   32   96 1    
    66   33   34 2    
    67   33   35 1    
    68   35   36 1    
    69   35   37 1    
    70   35   97 1    
    71   36   98 1    
    72   36   99 1    
    73   36  100 1    
    74   37   38 am   BACKBONE|DICT|INTERRES
    75   37  101 1    
    76   38   39 2    
    77   38   40 1    
    78   40   41 1    
    79   40   42 1    
    80   40  102 1    
    81   41  103 1    
    82   41  104 1    
    83   41  105 1    
    84   42   43 am   BACKBONE|DICT|INTERRES
    85   42  106 1    
    86   43   44 2    
    87   43   45 1    
    88   45   46 1    
    89   45   49 1    
    90   45  107 1    
    91   46   47 1    
    92   46  108 1    
    93   46  109 1    
    94   47   48 1    
    95   48  110 1    
    96   48  111 1    
    97   49   50 am   BACKBONE|DICT|INTERRES
    98   49  112 1    
    99   50   51 2    
   100   50   52 1    
   101   52   53 1    
   102   52   54 1    
   103   52  113 1    
   104   53  114 1    
   105   53  115 1    
   106   53  116 1    
   107   54   55 am   BACKBONE|DICT|INTERRES
   108   54  117 1    
   109   55   56 2    
   110   55   57 1    
   111   57   58 1    
   112   57   59 1    
   113   57  118 1    
   114   58  119 1    
   115   58  120 1    
   116   58  121 1    
   117   59   60 am   BACKBONE|DICT|INTERRES
   118   59  122 1    
   119   60   61 2    
   120   60   62 1    
   121   62   63 1    
   122   62   64 1    
   123   62  123 1    
   124   63  124 1    
   125   63  125 1    
   126   63  126 1    
   127   64   65 am   BACKBONE|DICT|INTERRES
   128   64  127 1    
   129   65   66 2    
@<TRIPOS>SUBSTRUCTURE
     1 UNK         1 GROUP             0       ****    0 ROOT    
