@<TRIPOS>MOLECULE
3R134
127   129    1
SMALL
USER_CHARGES


@<TRIPOS>ATOM
      1 CA         37.0662  -47.3311  -55.5757 C.3       0 UNK        -0.1968 
      2 C          36.1051  -46.8752  -54.4881 C.2       0 UNK         0.4852 
      3 O          35.9694  -47.5637  -53.4751 O.2       0 UNK        -0.5359 
      4 N          35.4388  -45.7302  -54.7054 N.am      1 UNK        -0.4300 
      5 CA         34.4652  -45.0683  -53.8254 C.3       1 UNK         0.0863 
      6 C6         35.1198  -44.2458  -52.6835 C.3       11 UNK        -0.0953 
      7 S7         35.6958  -42.6403  -53.3228 S.3       11 UNK        -0.2369 
      8 C8         34.3384  -41.5311  -52.8083 C.3       11 UNK         0.0226 
      9 C9         32.9681  -41.9743  -53.3165 C.ar      11 UNK        -0.0699 
     10 C10        31.9892  -42.4093  -52.4165 C.ar      11 UNK        -0.0804 
     11 C11        30.7208  -42.7920  -52.8649 C.ar      11 UNK        -0.0871 
     12 C12        30.4439  -42.7322  -54.2350 C.ar      11 UNK        -0.1008 
     13 C13        31.4149  -42.3239  -55.1593 C.ar      11 UNK        -0.0735 
     14 C14        32.6722  -41.9357  -54.6830 C.ar      11 UNK        -0.0945 
     15 C15        31.1676  -42.3011  -56.6731 C.3       11 UNK         0.0169 
     16 S16        29.4170  -42.2838  -57.2068 S.3       11 UNK        -0.2669 
     17 C17        28.9358  -44.0329  -56.9900 C.3       11 UNK        -0.0850 
     18 CA         28.1215  -44.6136  -58.1773 C.3       10 UNK         0.0855 
     19 C          28.9964  -45.1339  -59.3551 C.2       10 UNK         0.5543 
     20 N          28.6141  -46.2119  -60.0318 N.am      10 UNK        -0.7343 
     21 O          30.0303  -44.5536  -59.6743 O.2       10 UNK        -0.5027 
     22 N          27.1834  -45.6344  -57.6912 N.am      10 UNK        -0.4495 
     23 C          25.8528  -45.5248  -57.6445 C.2       10 UNK         0.4903 
     24 O          25.2384  -44.5065  -57.9668 O.2       10 UNK        -0.4860 
     25 CA         25.0754  -46.7609  -57.1449 C.3       9 UNK         0.0227 
     26 CB         23.6133  -46.7764  -57.6392 C.3       9 UNK        -0.1964 
     27 N          25.7203  -48.0495  -57.4374 N.am      9 UNK        -0.4231 
     28 C          26.0644  -48.5403  -58.6393 C.2       9 UNK         0.5014 
     29 O          25.9786  -47.9012  -59.6894 O.2       9 UNK        -0.5270 
     30 CA         26.5948  -49.9862  -58.6968 C.3       8 UNK         0.0284 
     31 CB         28.0572  -50.0370  -59.1707 C.3       8 UNK        -0.1977 
     32 N          26.4705  -50.7136  -57.4298 N.am      8 UNK        -0.4342 
     33 C          25.3526  -51.2979  -56.9839 C.2       8 UNK         0.5039 
     34 O          24.2815  -51.2676  -57.5908 O.2       8 UNK        -0.5547 
     35 CA         25.4293  -52.0474  -55.6400 C.3       7 UNK         0.0281 
     36 CB         26.1596  -53.3958  -55.8008 C.3       7 UNK        -0.1963 
     37 N          25.9781  -51.2715  -54.5161 N.am      7 UNK        -0.4444 
     38 C          27.2140  -50.7789  -54.3587 C.2       7 UNK         0.5104 
     39 O          28.1108  -50.8747  -55.1992 O.2       7 UNK        -0.5100 
     40 CA         27.5023  -50.0860  -53.0176 C.3       6 UNK         0.0396 
     41 CB         28.2815  -51.0279  -52.0869 C.3       6 UNK        -0.1801 
     42 N          28.2776  -48.8652  -53.2247 N.am      6 UNK        -0.4747 
     43 C          27.7704  -47.7245  -53.7139 C.2       6 UNK         0.5012 
     44 O          26.5723  -47.5502  -53.9411 O.2       6 UNK        -0.5003 
     45 CA         28.7825  -46.6133  -54.0528 C.3       5 UNK         0.0782 
     46 C46        29.2736  -45.8615  -52.7848 C.3       11 UNK        -0.0868 
     47 S47        28.3447  -44.3288  -52.4660 S.3       11 UNK        -0.2515 
     48 C48        29.6642  -43.2202  -51.8402 C.3       11 UNK         0.0199 
     49 N          29.9027  -47.1362  -54.8367 N.am      5 UNK        -0.4607 
     50 C          29.8213  -47.6858  -56.0552 C.2       4 UNK         0.5031 
     51 O          28.7776  -47.7435  -56.7022 O.2       4 UNK        -0.5119 
     52 CA         31.1189  -48.2411  -56.6635 C.3       4 UNK         0.0263 
     53 CB         31.8284  -47.1542  -57.4866 C.3       4 UNK        -0.1967 
     54 N          32.0296  -48.7250  -55.6239 N.am      4 UNK        -0.4237 
     55 C          32.1892  -50.0100  -55.2776 C.2       3 UNK         0.4908 
     56 O          31.6638  -50.9506  -55.8730 O.2       3 UNK        -0.5102 
     57 CA         33.0978  -50.3144  -54.0689 C.3       3 UNK         0.0241 
     58 CB         34.5008  -50.7256  -54.5437 C.3       3 UNK        -0.1971 
     59 N          33.2210  -49.2077  -53.1155 N.am      3 UNK        -0.4139 
     60 C          32.2208  -48.7380  -52.3547 C.2       2 UNK         0.5016 
     61 O          31.0805  -49.2011  -52.3522 O.2       2 UNK        -0.5319 
     62 CA         32.5233  -47.4925  -51.5012 C.3       2 UNK         0.0286 
     63 CB         33.0517  -47.9064  -50.1194 C.3       2 UNK        -0.1963 
     64 N          33.4631  -46.5466  -52.1167 N.am      2 UNK        -0.4790 
     65 C          33.3642  -46.0293  -53.3511 C.2       1 UNK         0.5024 
     66 O          32.4623  -46.3132  -54.1361 O.2       1 UNK        -0.4888 
     67 H67        37.1134  -46.6238  -56.4036 H         1 UNK         0.0892 
     68 H68        38.0700  -47.4390  -55.1657 H         1 UNK         0.0892 
     69 H69        36.7549  -48.2968  -55.9723 H         1 UNK         0.0892 
     70 H70        35.6027  -45.2443  -55.5758 H         1 UNK         0.3107 
     71 H71        33.9320  -44.3759  -54.4767 H         1 UNK         0.0773 
     72 H72        35.9628  -44.7820  -52.2448 H         1 UNK         0.0680 
     73 H73        34.4243  -44.0491  -51.8656 H         1 UNK         0.0680 
     74 H74        34.3407  -41.4569  -51.7197 H         1 UNK         0.0650 
     75 H75        34.5475  -40.5273  -53.1806 H         1 UNK         0.0650 
     76 H76        32.2114  -42.4367  -51.3583 H         1 UNK         0.1397 
     77 H77        29.4583  -43.0009  -54.5713 H         1 UNK         0.1363 
     78 H78        33.4329  -41.6096  -55.3795 H         1 UNK         0.1355 
     79 H79        31.6735  -43.1532  -57.1296 H         1 UNK         0.0707 
     80 H80        31.6389  -41.4100  -57.0905 H         1 UNK         0.0707 
     81 H81        28.3149  -44.0571  -56.0949 H         1 UNK         0.1034 
     82 H82        29.8062  -44.6523  -56.7666 H         1 UNK         0.1034 
     83 H83        27.5440  -43.7975  -58.6144 H         1 UNK         0.0482 
     84 H84        29.1814  -46.5373  -60.7977 H         1 UNK         0.3460 
     85 H85        27.7410  -46.6767  -59.8154 H         1 UNK         0.3460 
     86 H86        27.6142  -46.5162  -57.4155 H         1 UNK         0.2989 
     87 H87        25.0521  -46.6771  -56.0579 H         1 UNK         0.0559 
     88 H88        23.0749  -45.8880  -57.3068 H         1 UNK         0.0848 
     89 H89        23.0733  -47.6417  -57.2547 H         1 UNK         0.0848 
     90 H90        23.5573  -46.8031  -58.7280 H         1 UNK         0.0848 
     91 H91        25.9052  -48.6343  -56.6349 H         1 UNK         0.3144 
     92 H92        25.9923  -50.5024  -59.4473 H         1 UNK         0.0727 
     93 H93        28.3736  -51.0630  -59.3586 H         1 UNK         0.0790 
     94 H94        28.7379  -49.6113  -58.4363 H         1 UNK         0.0790 
     95 H95        28.1915  -49.4831  -60.1008 H         1 UNK         0.0790 
     96 H96        27.2919  -50.7566  -56.8264 H         1 UNK         0.3215 
     97 H97        24.3995  -52.2745  -55.3583 H         1 UNK         0.0863 
     98 H98        26.1259  -53.9766  -54.8790 H         1 UNK         0.0808 
     99 H99        27.2068  -53.2665  -56.0760 H         1 UNK         0.0808 
    100 H100       25.6935  -53.9997  -56.5805 H         1 UNK         0.0808 
    101 H101       25.3202  -51.1022  -53.7668 H         1 UNK         0.3118 
    102 H102       26.5595  -49.8235  -52.5328 H         1 UNK         0.0546 
    103 H103       27.7130  -51.9360  -51.8824 H         1 UNK         0.0828 
    104 H104       28.4939  -50.5534  -51.1287 H         1 UNK         0.0828 
    105 H105       29.2332  -51.3302  -52.5267 H         1 UNK         0.0828 
    106 H106       29.2826  -48.9430  -53.0884 H         1 UNK         0.3005 
    107 H107       28.2607  -45.9104  -54.7033 H         1 UNK         0.1257 
    108 H108       29.2426  -46.4885  -51.8915 H         1 UNK         0.0775 
    109 H109       30.3181  -45.5762  -52.9004 H         1 UNK         0.0775 
    110 H110       29.1924  -42.3197  -51.4453 H         1 UNK         0.0840 
    111 H111       30.1460  -43.7096  -50.9921 H         1 UNK         0.0840 
    112 H112       30.8246  -47.0229  -54.4262 H         1 UNK         0.2987 
    113 H113       30.8495  -49.0573  -57.3365 H         1 UNK         0.0785 
    114 H114       32.7561  -47.5282  -57.9196 H         1 UNK         0.0798 
    115 H115       32.0692  -46.2770  -56.8844 H         1 UNK         0.0798 
    116 H116       31.1996  -46.8222  -58.3125 H         1 UNK         0.0798 
    117 H117       32.4778  -48.0094  -55.0615 H         1 UNK         0.3079 
    118 H118       32.6547  -51.1597  -53.5378 H         1 UNK         0.0794 
    119 H119       34.4499  -51.5784  -55.2221 H         1 UNK         0.0786 
    120 H120       35.1349  -51.0165  -53.7059 H         1 UNK         0.0786 
    121 H121       34.9991  -49.9147  -55.0756 H         1 UNK         0.0786 
    122 H122       34.1186  -48.7368  -53.0705 H         1 UNK         0.3032 
    123 H123       31.5804  -46.9648  -51.3546 H         1 UNK         0.1094 
    124 H124       33.1634  -47.0442  -49.4616 H         1 UNK         0.0794 
    125 H125       32.3642  -48.5976  -49.6293 H         1 UNK         0.0794 
    126 H126       34.0199  -48.4041  -50.1897 H         1 UNK         0.0794 
    127 H127       34.2776  -46.3053  -51.5701 H         1 UNK         0.3016 
@<TRIPOS>BOND
     1    1    2 1    
     2    1   67 1    
     3    1   68 1    
     4    1   69 1    
     5    2    3 2    
     6    2    4 am   BACKBONE|DICT|INTERRES
     7    4    5 1    
     8    4   70 1    
     9    5    6 1    
    10    5   65 1    
    11    5   71 1    
    12    6    7 1    
    13    6   72 1    
    14    6   73 1    
    15    7    8 1    
    16    8    9 1    
    17    8   74 1    
    18    8   75 1    
    19    9   10 ar   
    20    9   14 ar   
    21   10   11 ar   
    22   10   76 1    
    23   11   12 ar   
    24   11   48 1    
    25   12   13 ar   
    26   12   77 1    
    27   13   14 ar   
    28   13   15 1    
    29   14   78 1    
    30   15   16 1    
    31   15   79 1    
    32   15   80 1    
    33   16   17 1    
    34   17   18 1    
    35   17   81 1    
    36   17   82 1    
    37   18   19 1    
    38   18   22 1    
    39   18   83 1    
    40   19   20 am   BACKBONE|DICT|INTERRES
    41   19   21 2    
    42   20   84 1    
    43   20   85 1    
    44   22   23 am   BACKBONE|DICT|INTERRES
    45   22   86 1    
    46   23   24 2    
    47   23   25 1    
    48   25   26 1    
    49   25   27 1    
    50   25   87 1    
    51   26   88 1    
    52   26   89 1    
    53   26   90 1    
    54   27   28 am   BACKBONE|DICT|INTERRES
    55   27   91 1    
    56   28   29 2    
    57   28   30 1    
    58   30   31 1    
    59   30   32 1    
    60   30   92 1    
    61   31   93 1    
    62   31   94 1    
    63   31   95 1    
    64   32   33 am   BACKBONE|DICT|INTERRES
    65   32   96 1    
    66   33   34 2    
    67   33   35 1    
    68   35   36 1    
    69   35   37 1    
    70   35   97 1    
    71   36   98 1    
    72   36   99 1    
    73   36  100 1    
    74   37   38 am   BACKBONE|DICT|INTERRES
    75   37  101 1    
    76   38   39 2    
    77   38   40 1    
    78   40   41 1    
    79   40   42 1    
    80   40  102 1    
    81   41  103 1    
    82   41  104 1    
    83   41  105 1    
    84   42   43 am   BACKBONE|DICT|INTERRES
    85   42  106 1    
    86   43   44 2    
    87   43   45 1    
    88   45   46 1    
    89   45   49 1    
    90   45  107 1    
    91   46   47 1    
    92   46  108 1    
    93   46  109 1    
    94   47   48 1    
    95   48  110 1    
    96   48  111 1    
    97   49   50 am   BACKBONE|DICT|INTERRES
    98   49  112 1    
    99   50   51 2    
   100   50   52 1    
   101   52   53 1    
   102   52   54 1    
   103   52  113 1    
   104   53  114 1    
   105   53  115 1    
   106   53  116 1    
   107   54   55 am   BACKBONE|DICT|INTERRES
   108   54  117 1    
   109   55   56 2    
   110   55   57 1    
   111   57   58 1    
   112   57   59 1    
   113   57  118 1    
   114   58  119 1    
   115   58  120 1    
   116   58  121 1    
   117   59   60 am   BACKBONE|DICT|INTERRES
   118   59  122 1    
   119   60   61 2    
   120   60   62 1    
   121   62   63 1    
   122   62   64 1    
   123   62  123 1    
   124   63  124 1    
   125   63  125 1    
   126   63  126 1    
   127   64   65 am   BACKBONE|DICT|INTERRES
   128   64  127 1    
   129   65   66 2    
@<TRIPOS>SUBSTRUCTURE
     1 UNK         1 GROUP             0       ****    0 ROOT    
