@<TRIPOS>MOLECULE
3R134
127   129    1
SMALL
USER_CHARGES


@<TRIPOS>ATOM
      1 CA         37.3291  -42.4999  -54.3199 C.3       0 UNK        -0.1968 
      2 C          36.8623  -43.5734  -55.2920 C.2       0 UNK         0.4852 
      3 O          37.6628  -44.0658  -56.0884 O.2       0 UNK        -0.5359 
      4 N          35.5734  -43.9350  -55.2344 N.am      1 UNK        -0.4300 
      5 CA         34.9464  -44.9732  -56.0620 C.3       1 UNK         0.0863 
      6 C6         33.3984  -44.8782  -56.0510 C.3       11 UNK        -0.0953 
      7 S7         32.6658  -44.7152  -54.3841 S.3       11 UNK        -0.2369 
      8 C8         31.3925  -46.0149  -54.3584 C.3       11 UNK         0.0226 
      9 C9         30.1746  -45.5350  -53.5869 C.ar      11 UNK        -0.0699 
     10 C10        30.1367  -45.6081  -52.1910 C.ar      11 UNK        -0.0804 
     11 C11        29.0154  -45.1495  -51.4890 C.ar      11 UNK        -0.0871 
     12 C12        27.9453  -44.5829  -52.1899 C.ar      11 UNK        -0.1008 
     13 C13        27.9726  -44.5158  -53.5848 C.ar      11 UNK        -0.0735 
     14 C14        29.0812  -45.0071  -54.2760 C.ar      11 UNK        -0.0945 
     15 C15        26.7997  -43.9380  -54.3556 C.3       11 UNK         0.0169 
     16 S16        25.6370  -45.2584  -54.8025 S.3       11 UNK        -0.2669 
     17 C17        25.1150  -44.7556  -56.4748 C.3       11 UNK        -0.0850 
     18 CA         25.8928  -45.5319  -57.5784 C.3       10 UNK         0.0855 
     19 C          25.1499  -45.5788  -58.9517 C.2       10 UNK         0.5543 
     20 N          25.8439  -45.7106  -60.0773 N.am      10 UNK        -0.7343 
     21 O          23.9236  -45.5228  -59.0051 O.2       10 UNK        -0.5027 
     22 N          27.3141  -45.1516  -57.6738 N.am      10 UNK        -0.4495 
     23 C          27.7859  -43.9838  -58.1394 C.2       10 UNK         0.4903 
     24 O          27.0816  -42.9947  -58.3429 O.2       10 UNK        -0.4860 
     25 CA         29.2854  -43.9043  -58.5001 C.3       9 UNK         0.0227 
     26 CB         30.0673  -43.0177  -57.5149 C.3       9 UNK        -0.1964 
     27 N          29.9475  -45.2068  -58.6295 N.am      9 UNK        -0.4231 
     28 C          29.6479  -46.1382  -59.5471 C.2       9 UNK         0.5014 
     29 O          28.8005  -45.9838  -60.4286 O.2       9 UNK        -0.5270 
     30 CA         30.3678  -47.4949  -59.4370 C.3       8 UNK         0.0284 
     31 CB         31.6774  -47.4515  -58.6174 C.3       8 UNK        -0.1977 
     32 N          29.4762  -48.5395  -58.9168 N.am      8 UNK        -0.4342 
     33 C          28.7990  -48.5237  -57.7584 C.2       8 UNK         0.5039 
     34 O          28.8050  -47.5730  -56.9706 O.2       8 UNK        -0.5547 
     35 CA         28.0016  -49.7975  -57.4320 C.3       7 UNK         0.0281 
     36 CB         28.9495  -50.9830  -57.1765 C.3       7 UNK        -0.1963 
     37 N          27.1956  -49.6072  -56.2288 N.am      7 UNK        -0.4444 
     38 C          25.8896  -49.3026  -56.2051 C.2       7 UNK         0.5104 
     39 O          25.1984  -49.1909  -57.2181 O.2       7 UNK        -0.5100 
     40 CA         25.2292  -49.0972  -54.8292 C.3       6 UNK         0.0396 
     41 CB         24.4827  -50.3822  -54.4163 C.3       6 UNK        -0.1801 
     42 N          26.2291  -48.7191  -53.8316 N.am      6 UNK        -0.4747 
     43 C          26.0685  -48.4246  -52.5395 C.2       6 UNK         0.5012 
     44 O          24.9830  -48.4162  -51.9565 O.2       6 UNK        -0.5003 
     45 CA         27.3762  -48.1160  -51.7778 C.3       5 UNK         0.0782 
     46 C46        27.1303  -47.4918  -50.3767 C.3       11 UNK        -0.0868 
     47 S47        28.6836  -47.0623  -49.5104 S.3       11 UNK        -0.2515 
     48 C48        28.9327  -45.3169  -49.9794 C.3       11 UNK         0.0199 
     49 N          28.2616  -49.2868  -51.7135 N.am      5 UNK        -0.4607 
     50 C          28.9969  -49.7647  -52.7246 C.2       4 UNK         0.5031 
     51 O          28.9338  -49.3433  -53.8831 O.2       4 UNK        -0.5119 
     52 CA         29.9312  -50.9406  -52.3977 C.3       4 UNK         0.0263 
     53 CB         29.1995  -52.2747  -52.6175 C.3       4 UNK        -0.1967 
     54 N          31.1356  -50.9120  -53.2310 N.am      4 UNK        -0.4237 
     55 C          32.0757  -49.9596  -53.1742 C.2       3 UNK         0.4908 
     56 O          32.0998  -49.0621  -52.3268 O.2       3 UNK        -0.5102 
     57 CA         33.1601  -50.0189  -54.2578 C.3       3 UNK         0.0241 
     58 CB         32.5684  -49.7701  -55.6595 C.3       3 UNK        -0.1971 
     59 N          34.1728  -49.0030  -53.9844 N.am      3 UNK        -0.4139 
     60 C          35.4846  -49.1328  -54.2053 C.2       2 UNK         0.5016 
     61 O          36.0078  -50.1593  -54.6455 O.2       2 UNK        -0.5319 
     62 CA         36.3447  -47.8875  -53.9033 C.3       2 UNK         0.0286 
     63 CB         37.8101  -48.0470  -54.3618 C.3       2 UNK        -0.1963 
     64 N          35.7784  -46.6442  -54.4508 N.am      2 UNK        -0.4790 
     65 C          35.4417  -46.3968  -55.7294 C.2       1 UNK         0.5024 
     66 O          35.5240  -47.2226  -56.6395 O.2       1 UNK        -0.4888 
     67 H67        36.5200  -42.1494  -53.6793 H         1 UNK         0.0892 
     68 H68        38.1213  -42.8908  -53.6819 H         1 UNK         0.0892 
     69 H69        37.7229  -41.6439  -54.8671 H         1 UNK         0.0892 
     70 H70        34.9574  -43.4928  -54.5659 H         1 UNK         0.3107 
     71 H71        35.2636  -44.7854  -57.0905 H         1 UNK         0.0773 
     72 H72        32.9620  -45.7268  -56.5770 H         1 UNK         0.0680 
     73 H73        33.0929  -43.9984  -56.6190 H         1 UNK         0.0680 
     74 H74        31.8009  -46.9150  -53.9007 H         1 UNK         0.0650 
     75 H75        31.0984  -46.2889  -55.3719 H         1 UNK         0.0650 
     76 H76        30.9687  -46.0436  -51.6541 H         1 UNK         0.1397 
     77 H77        27.0748  -44.2274  -51.6553 H         1 UNK         0.1363 
     78 H78        29.0861  -44.9868  -55.3552 H         1 UNK         0.1355 
     79 H79        26.2807  -43.1838  -53.7624 H         1 UNK         0.0707 
     80 H80        27.1653  -43.4296  -55.2484 H         1 UNK         0.0707 
     81 H81        24.0464  -44.9695  -56.5301 H         1 UNK         0.1034 
     82 H82        25.2042  -43.6764  -56.6036 H         1 UNK         0.1034 
     83 H83        25.9125  -46.5767  -57.2737 H         1 UNK         0.0482 
     84 H84        26.8568  -45.7713  -60.0684 H         1 UNK         0.3460 
     85 H85        25.3502  -45.7486  -60.9545 H         1 UNK         0.3460 
     86 H86        27.9673  -45.9126  -57.5025 H         1 UNK         0.2989 
     87 H87        29.3350  -43.4231  -59.4791 H         1 UNK         0.0559 
     88 H88        29.5665  -42.0599  -57.3665 H         1 UNK         0.0848 
     89 H89        31.0660  -42.7989  -57.8930 H         1 UNK         0.0848 
     90 H90        30.1811  -43.4789  -56.5357 H         1 UNK         0.0848 
     91 H91        30.6191  -45.4502  -57.9176 H         1 UNK         0.3144 
     92 H92        30.6288  -47.7824  -60.4567 H         1 UNK         0.0727 
     93 H93        32.2183  -48.3943  -58.7015 H         1 UNK         0.0790 
     94 H94        31.4935  -47.2811  -57.5576 H         1 UNK         0.0790 
     95 H95        32.3475  -46.6689  -58.9763 H         1 UNK         0.0790 
     96 H96        29.3706  -49.3477  -59.5144 H         1 UNK         0.3215 
     97 H97        27.3610  -50.0306  -58.2853 H         1 UNK         0.0863 
     98 H98        28.3904  -51.8956  -56.9688 H         1 UNK         0.0808 
     99 H99        29.6015  -50.7937  -56.3235 H         1 UNK         0.0808 
    100 H100       29.5857  -51.1868  -58.0384 H         1 UNK         0.0808 
    101 H101       27.7287  -49.6319  -55.3663 H         1 UNK         0.3118 
    102 H102       24.5141  -48.2777  -54.9204 H         1 UNK         0.0546 
    103 H103       25.1739  -51.2043  -54.2274 H         1 UNK         0.0828 
    104 H104       23.7976  -50.7056  -55.2012 H         1 UNK         0.0828 
    105 H105       23.8839  -50.2336  -53.5183 H         1 UNK         0.0828 
    106 H106       27.1866  -48.6716  -54.1668 H         1 UNK         0.3005 
    107 H107       27.8861  -47.3684  -52.3856 H         1 UNK         0.1257 
    108 H108       26.5770  -48.1877  -49.7436 H         1 UNK         0.0775 
    109 H109       26.5093  -46.5976  -50.4564 H         1 UNK         0.0775 
    110 H110       28.1249  -44.7132  -49.5626 H         1 UNK         0.0840 
    111 H111       29.8541  -44.9530  -49.5227 H         1 UNK         0.0840 
    112 H112       28.3543  -49.7091  -50.8014 H         1 UNK         0.2987 
    113 H113       30.2384  -50.8695  -51.3520 H         1 UNK         0.0785 
    114 H114       29.8358  -53.1236  -52.3665 H         1 UNK         0.0798 
    115 H115       28.8750  -52.3913  -53.6527 H         1 UNK         0.0798 
    116 H116       28.3103  -52.3419  -51.9892 H         1 UNK         0.0798 
    117 H117       31.1834  -51.5956  -53.9717 H         1 UNK         0.3079 
    118 H118       33.6140  -51.0116  -54.2225 H         1 UNK         0.0794 
    119 H119       31.9318  -50.5976  -55.9707 H         1 UNK         0.0786 
    120 H120       33.3517  -49.6712  -56.4116 H         1 UNK         0.0786 
    121 H121       31.9640  -48.8625  -55.6870 H         1 UNK         0.0786 
    122 H122       33.8246  -48.1629  -53.5419 H         1 UNK         0.3032 
    123 H123       36.3499  -47.7805  -52.8171 H         1 UNK         0.1094 
    124 H124       38.4038  -47.1696  -54.1051 H         1 UNK         0.0794 
    125 H125       38.2799  -48.9068  -53.8823 H         1 UNK         0.0794 
    126 H126       37.8820  -48.1954  -55.4399 H         1 UNK         0.0794 
    127 H127       35.6503  -45.8917  -53.7884 H         1 UNK         0.3016 
@<TRIPOS>BOND
     1    1    2 1    
     2    1   67 1    
     3    1   68 1    
     4    1   69 1    
     5    2    3 2    
     6    2    4 am   BACKBONE|DICT|INTERRES
     7    4    5 1    
     8    4   70 1    
     9    5    6 1    
    10    5   65 1    
    11    5   71 1    
    12    6    7 1    
    13    6   72 1    
    14    6   73 1    
    15    7    8 1    
    16    8    9 1    
    17    8   74 1    
    18    8   75 1    
    19    9   10 ar   
    20    9   14 ar   
    21   10   11 ar   
    22   10   76 1    
    23   11   12 ar   
    24   11   48 1    
    25   12   13 ar   
    26   12   77 1    
    27   13   14 ar   
    28   13   15 1    
    29   14   78 1    
    30   15   16 1    
    31   15   79 1    
    32   15   80 1    
    33   16   17 1    
    34   17   18 1    
    35   17   81 1    
    36   17   82 1    
    37   18   19 1    
    38   18   22 1    
    39   18   83 1    
    40   19   20 am   BACKBONE|DICT|INTERRES
    41   19   21 2    
    42   20   84 1    
    43   20   85 1    
    44   22   23 am   BACKBONE|DICT|INTERRES
    45   22   86 1    
    46   23   24 2    
    47   23   25 1    
    48   25   26 1    
    49   25   27 1    
    50   25   87 1    
    51   26   88 1    
    52   26   89 1    
    53   26   90 1    
    54   27   28 am   BACKBONE|DICT|INTERRES
    55   27   91 1    
    56   28   29 2    
    57   28   30 1    
    58   30   31 1    
    59   30   32 1    
    60   30   92 1    
    61   31   93 1    
    62   31   94 1    
    63   31   95 1    
    64   32   33 am   BACKBONE|DICT|INTERRES
    65   32   96 1    
    66   33   34 2    
    67   33   35 1    
    68   35   36 1    
    69   35   37 1    
    70   35   97 1    
    71   36   98 1    
    72   36   99 1    
    73   36  100 1    
    74   37   38 am   BACKBONE|DICT|INTERRES
    75   37  101 1    
    76   38   39 2    
    77   38   40 1    
    78   40   41 1    
    79   40   42 1    
    80   40  102 1    
    81   41  103 1    
    82   41  104 1    
    83   41  105 1    
    84   42   43 am   BACKBONE|DICT|INTERRES
    85   42  106 1    
    86   43   44 2    
    87   43   45 1    
    88   45   46 1    
    89   45   49 1    
    90   45  107 1    
    91   46   47 1    
    92   46  108 1    
    93   46  109 1    
    94   47   48 1    
    95   48  110 1    
    96   48  111 1    
    97   49   50 am   BACKBONE|DICT|INTERRES
    98   49  112 1    
    99   50   51 2    
   100   50   52 1    
   101   52   53 1    
   102   52   54 1    
   103   52  113 1    
   104   53  114 1    
   105   53  115 1    
   106   53  116 1    
   107   54   55 am   BACKBONE|DICT|INTERRES
   108   54  117 1    
   109   55   56 2    
   110   55   57 1    
   111   57   58 1    
   112   57   59 1    
   113   57  118 1    
   114   58  119 1    
   115   58  120 1    
   116   58  121 1    
   117   59   60 am   BACKBONE|DICT|INTERRES
   118   59  122 1    
   119   60   61 2    
   120   60   62 1    
   121   62   63 1    
   122   62   64 1    
   123   62  123 1    
   124   63  124 1    
   125   63  125 1    
   126   63  126 1    
   127   64   65 am   BACKBONE|DICT|INTERRES
   128   64  127 1    
   129   65   66 2    
@<TRIPOS>SUBSTRUCTURE
     1 UNK         1 GROUP             0       ****    0 ROOT    
