@<TRIPOS>MOLECULE
3R134
127   129    1
SMALL
USER_CHARGES


@<TRIPOS>ATOM
      1 CA         36.1033  -47.8393  -55.0392 C.3       0 UNK        -0.1968 
      2 C          35.1824  -47.3463  -53.9343 C.2       0 UNK         0.4852 
      3 O          35.3056  -47.7961  -52.7941 O.2       0 UNK        -0.5359 
      4 N          34.2564  -46.4324  -54.2615 N.am      1 UNK        -0.4300 
      5 CA         33.3067  -45.8045  -53.3357 C.3       1 UNK         0.0863 
      6 C6         34.0254  -44.8537  -52.3359 C.3       11 UNK        -0.0953 
      7 S7         32.9346  -43.5513  -51.6740 S.3       11 UNK        -0.2369 
      8 C8         33.3258  -42.1439  -52.7664 C.3       11 UNK         0.0226 
      9 C9         32.5839  -42.2444  -54.0911 C.ar      11 UNK        -0.0699 
     10 C10        33.1647  -42.8914  -55.1876 C.ar      11 UNK        -0.0804 
     11 C11        32.4503  -43.0399  -56.3806 C.ar      11 UNK        -0.0871 
     12 C12        31.1750  -42.4792  -56.4924 C.ar      11 UNK        -0.1008 
     13 C13        30.5889  -41.8220  -55.4080 C.ar      11 UNK        -0.0735 
     14 C14        31.2983  -41.7074  -54.2097 C.ar      11 UNK        -0.0945 
     15 C15        29.1858  -41.2453  -55.5295 C.3       11 UNK         0.0169 
     16 S16        27.9345  -42.2758  -54.6951 S.3       11 UNK        -0.2669 
     17 C17        27.9542  -43.8224  -55.6674 C.3       11 UNK        -0.0850 
     18 CA         26.8202  -43.8941  -56.7346 C.3       10 UNK         0.0855 
     19 C          27.3398  -43.6950  -58.1909 C.2       10 UNK         0.5543 
     20 N          26.9250  -44.4928  -59.1689 N.am      10 UNK        -0.7343 
     21 O          28.1278  -42.7901  -58.4485 O.2       10 UNK        -0.5027 
     22 N          26.0268  -45.1217  -56.5755 N.am      10 UNK        -0.4495 
     23 C          24.6897  -45.1848  -56.5877 C.2       10 UNK         0.4903 
     24 O          23.9576  -44.1956  -56.6499 O.2       10 UNK        -0.4860 
     25 CA         24.0639  -46.5930  -56.5180 C.3       9 UNK         0.0227 
     26 CB         22.6100  -46.6269  -57.0358 C.3       9 UNK        -0.1964 
     27 N          24.8686  -47.6319  -57.1735 N.am      9 UNK        -0.4231 
     28 C          25.2458  -47.6847  -58.4625 C.2       9 UNK         0.5014 
     29 O          24.9684  -46.8107  -59.2853 O.2       9 UNK        -0.5270 
     30 CA         26.1023  -48.8884  -58.9076 C.3       8 UNK         0.0284 
     31 CB         27.2296  -48.4572  -59.8647 C.3       8 UNK        -0.1977 
     32 N          26.6964  -49.5803  -57.7631 N.am      8 UNK        -0.4342 
     33 C          26.1912  -50.6608  -57.1528 C.2       8 UNK         0.5039 
     34 O          25.2055  -51.2776  -57.5570 O.2       8 UNK        -0.5547 
     35 CA         26.8704  -51.1021  -55.8430 C.3       7 UNK         0.0281 
     36 CB         27.7962  -52.3046  -56.0879 C.3       7 UNK        -0.1963 
     37 N          27.6204  -50.0142  -55.2018 N.am      7 UNK        -0.4444 
     38 C          27.0422  -48.9790  -54.5720 C.2       7 UNK         0.5104 
     39 O          25.8240  -48.8680  -54.4355 O.2       7 UNK        -0.5100 
     40 CA         27.9521  -47.8462  -54.0607 C.3       6 UNK         0.0396 
     41 CB         28.3355  -48.0820  -52.5936 C.3       6 UNK        -0.1801 
     42 N          29.1690  -47.6519  -54.8520 N.am      6 UNK        -0.4747 
     43 C          29.2049  -47.3209  -56.1500 C.2       6 UNK         0.5012 
     44 O          28.1956  -47.0938  -56.8173 O.2       6 UNK        -0.5003 
     45 CA         30.5951  -47.2717  -56.8188 C.3       5 UNK         0.0782 
     46 C46        31.1600  -45.8324  -56.7259 C.3       11 UNK        -0.0868 
     47 S47        32.9024  -45.6481  -57.2486 S.3       11 UNK        -0.2515 
     48 C48        33.0261  -43.8475  -57.5369 C.3       11 UNK         0.0199 
     49 N          31.5328  -48.2833  -56.3076 N.am      5 UNK        -0.4607 
     50 C          31.3221  -49.6054  -56.2596 C.2       4 UNK         0.5031 
     51 O          30.2481  -50.1387  -56.5319 O.2       4 UNK        -0.5119 
     52 CA         32.5085  -50.4807  -55.8509 C.3       4 UNK         0.0263 
     53 CB         33.7453  -50.2215  -56.7347 C.3       4 UNK        -0.1967 
     54 N          32.8336  -50.3277  -54.4291 N.am      4 UNK        -0.4237 
     55 C          33.4100  -51.3015  -53.7044 C.2       3 UNK         0.4908 
     56 O          33.6905  -52.4073  -54.1708 O.2       3 UNK        -0.5102 
     57 CA         33.7640  -51.0375  -52.2286 C.3       3 UNK         0.0241 
     58 CB         35.2865  -51.1185  -52.0174 C.3       3 UNK        -0.1971 
     59 N          33.2848  -49.7500  -51.7258 N.am      3 UNK        -0.4139 
     60 C          32.0995  -49.5630  -51.1263 C.2       2 UNK         0.5016 
     61 O          31.2793  -50.4622  -50.9397 O.2       2 UNK        -0.5319 
     62 CA         31.7551  -48.1335  -50.6590 C.3       2 UNK         0.0286 
     63 CB         32.0371  -47.9790  -49.1561 C.3       2 UNK        -0.1963 
     64 N          32.4574  -47.0720  -51.3873 N.am      2 UNK        -0.4790 
     65 C          32.3866  -46.8731  -52.7095 C.2       1 UNK         0.5024 
     66 O          31.6718  -47.5490  -53.4517 O.2       1 UNK        -0.4888 
     67 H67        37.1296  -47.5406  -54.8280 H         1 UNK         0.0892 
     68 H68        36.0727  -48.9271  -55.0955 H         1 UNK         0.0892 
     69 H69        35.8265  -47.4365  -56.0134 H         1 UNK         0.0892 
     70 H70        34.1836  -46.1219  -55.2218 H         1 UNK         0.3107 
     71 H71        32.6470  -45.2036  -53.9586 H         1 UNK         0.0773 
     72 H72        34.8608  -44.3623  -52.8363 H         1 UNK         0.0680 
     73 H73        34.4852  -45.3980  -51.5097 H         1 UNK         0.0680 
     74 H74        34.4023  -42.0766  -52.9297 H         1 UNK         0.0650 
     75 H75        33.0419  -41.2214  -52.2577 H         1 UNK         0.0650 
     76 H76        34.1530  -43.3208  -55.0976 H         1 UNK         0.1397 
     77 H77        30.6207  -42.5839  -57.4155 H         1 UNK         0.1363 
     78 H78        30.8407  -41.2133  -53.3633 H         1 UNK         0.1355 
     79 H79        28.9093  -41.1105  -56.5755 H         1 UNK         0.0707 
     80 H80        29.1691  -40.2492  -55.0849 H         1 UNK         0.0707 
     81 H81        27.8497  -44.6306  -54.9424 H         1 UNK         0.1034 
     82 H82        28.9377  -43.9804  -56.1050 H         1 UNK         0.1034 
     83 H83        26.1574  -43.0425  -56.5741 H         1 UNK         0.0482 
     84 H84        26.2480  -45.2275  -59.0008 H         1 UNK         0.3460 
     85 H85        27.2710  -44.3384  -60.1019 H         1 UNK         0.3460 
     86 H86        26.5635  -45.9834  -56.5906 H         1 UNK         0.2989 
     87 H87        24.0406  -46.8559  -55.4595 H         1 UNK         0.0559 
     88 H88        22.5454  -46.3168  -58.0793 H         1 UNK         0.0848 
     89 H89        21.9712  -45.9577  -56.4580 H         1 UNK         0.0848 
     90 H90        22.1830  -47.6265  -56.9557 H         1 UNK         0.0848 
     91 H91        25.1754  -48.3782  -56.5624 H         1 UNK         0.3144 
     92 H92        25.4420  -49.5685  -59.4493 H         1 UNK         0.0727 
     93 H93        27.8456  -49.3065  -60.1604 H         1 UNK         0.0790 
     94 H94        27.8824  -47.7100  -59.4123 H         1 UNK         0.0790 
     95 H95        26.8231  -48.0218  -60.7784 H         1 UNK         0.0790 
     96 H96        27.4894  -49.1157  -57.3373 H         1 UNK         0.3215 
     97 H97        26.0824  -51.4204  -55.1566 H         1 UNK         0.0863 
     98 H98        27.2273  -53.1619  -56.4501 H         1 UNK         0.0808 
     99 H99        28.3009  -52.6138  -55.1726 H         1 UNK         0.0808 
    100 H100       28.5581  -52.0863  -56.8364 H         1 UNK         0.0808 
    101 H101       28.6256  -50.0089  -55.3486 H         1 UNK         0.3118 
    102 H102       27.3745  -46.9213  -54.1140 H         1 UNK         0.0546 
    103 H103       28.9706  -48.9616  -52.4791 H         1 UNK         0.0828 
    104 H104       27.4497  -48.2339  -51.9752 H         1 UNK         0.0828 
    105 H105       28.8690  -47.2231  -52.1870 H         1 UNK         0.0828 
    106 H106       30.0569  -47.7802  -54.3710 H         1 UNK         0.3005 
    107 H107       30.4406  -47.5045  -57.8747 H         1 UNK         0.1257 
    108 H108       30.5519  -45.1709  -57.3452 H         1 UNK         0.0775 
    109 H109       31.0832  -45.4557  -55.7042 H         1 UNK         0.0775 
    110 H110       34.0730  -43.5803  -57.6879 H         1 UNK         0.0840 
    111 H111       32.5127  -43.6020  -58.4681 H         1 UNK         0.0840 
    112 H112       32.4399  -47.9286  -56.0486 H         1 UNK         0.2987 
    113 H113       32.1899  -51.5111  -56.0261 H         1 UNK         0.0785 
    114 H114       34.5502  -50.9207  -56.5077 H         1 UNK         0.0798 
    115 H115       34.1353  -49.2125  -56.6112 H         1 UNK         0.0798 
    116 H116       33.5007  -50.3469  -57.7904 H         1 UNK         0.0798 
    117 H117       32.5554  -49.4611  -53.9818 H         1 UNK         0.3079 
    118 H118       33.3095  -51.8415  -51.6456 H         1 UNK         0.0794 
    119 H119       35.6671  -52.1047  -52.2869 H         1 UNK         0.0786 
    120 H120       35.5533  -50.9450  -50.9748 H         1 UNK         0.0786 
    121 H121       35.8206  -50.3891  -52.6266 H         1 UNK         0.0786 
    122 H122       33.9007  -48.9540  -51.8678 H         1 UNK         0.3032 
    123 H123       30.6854  -47.9937  -50.8197 H         1 UNK         0.1094 
    124 H124       33.0994  -48.0842  -48.9319 H         1 UNK         0.0794 
    125 H125       31.7093  -47.0065  -48.7879 H         1 UNK         0.0794 
    126 H126       31.5055  -48.7371  -48.5788 H         1 UNK         0.0794 
    127 H127       33.0762  -46.4827  -50.8487 H         1 UNK         0.3016 
@<TRIPOS>BOND
     1    1    2 1    
     2    1   67 1    
     3    1   68 1    
     4    1   69 1    
     5    2    3 2    
     6    2    4 am   BACKBONE|DICT|INTERRES
     7    4    5 1    
     8    4   70 1    
     9    5    6 1    
    10    5   65 1    
    11    5   71 1    
    12    6    7 1    
    13    6   72 1    
    14    6   73 1    
    15    7    8 1    
    16    8    9 1    
    17    8   74 1    
    18    8   75 1    
    19    9   10 ar   
    20    9   14 ar   
    21   10   11 ar   
    22   10   76 1    
    23   11   12 ar   
    24   11   48 1    
    25   12   13 ar   
    26   12   77 1    
    27   13   14 ar   
    28   13   15 1    
    29   14   78 1    
    30   15   16 1    
    31   15   79 1    
    32   15   80 1    
    33   16   17 1    
    34   17   18 1    
    35   17   81 1    
    36   17   82 1    
    37   18   19 1    
    38   18   22 1    
    39   18   83 1    
    40   19   20 am   BACKBONE|DICT|INTERRES
    41   19   21 2    
    42   20   84 1    
    43   20   85 1    
    44   22   23 am   BACKBONE|DICT|INTERRES
    45   22   86 1    
    46   23   24 2    
    47   23   25 1    
    48   25   26 1    
    49   25   27 1    
    50   25   87 1    
    51   26   88 1    
    52   26   89 1    
    53   26   90 1    
    54   27   28 am   BACKBONE|DICT|INTERRES
    55   27   91 1    
    56   28   29 2    
    57   28   30 1    
    58   30   31 1    
    59   30   32 1    
    60   30   92 1    
    61   31   93 1    
    62   31   94 1    
    63   31   95 1    
    64   32   33 am   BACKBONE|DICT|INTERRES
    65   32   96 1    
    66   33   34 2    
    67   33   35 1    
    68   35   36 1    
    69   35   37 1    
    70   35   97 1    
    71   36   98 1    
    72   36   99 1    
    73   36  100 1    
    74   37   38 am   BACKBONE|DICT|INTERRES
    75   37  101 1    
    76   38   39 2    
    77   38   40 1    
    78   40   41 1    
    79   40   42 1    
    80   40  102 1    
    81   41  103 1    
    82   41  104 1    
    83   41  105 1    
    84   42   43 am   BACKBONE|DICT|INTERRES
    85   42  106 1    
    86   43   44 2    
    87   43   45 1    
    88   45   46 1    
    89   45   49 1    
    90   45  107 1    
    91   46   47 1    
    92   46  108 1    
    93   46  109 1    
    94   47   48 1    
    95   48  110 1    
    96   48  111 1    
    97   49   50 am   BACKBONE|DICT|INTERRES
    98   49  112 1    
    99   50   51 2    
   100   50   52 1    
   101   52   53 1    
   102   52   54 1    
   103   52  113 1    
   104   53  114 1    
   105   53  115 1    
   106   53  116 1    
   107   54   55 am   BACKBONE|DICT|INTERRES
   108   54  117 1    
   109   55   56 2    
   110   55   57 1    
   111   57   58 1    
   112   57   59 1    
   113   57  118 1    
   114   58  119 1    
   115   58  120 1    
   116   58  121 1    
   117   59   60 am   BACKBONE|DICT|INTERRES
   118   59  122 1    
   119   60   61 2    
   120   60   62 1    
   121   62   63 1    
   122   62   64 1    
   123   62  123 1    
   124   63  124 1    
   125   63  125 1    
   126   63  126 1    
   127   64   65 am   BACKBONE|DICT|INTERRES
   128   64  127 1    
   129   65   66 2    
@<TRIPOS>SUBSTRUCTURE
     1 UNK         1 GROUP             0       ****    0 ROOT    
