@<TRIPOS>MOLECULE
3R134
127   129    1
SMALL
USER_CHARGES


@<TRIPOS>ATOM
      1 CA         37.0408  -44.5610  -49.1167 C.3       0 UNK        -0.1968 
      2 C          36.9892  -45.2784  -50.4578 C.2       0 UNK         0.4852 
      3 O          38.0165  -45.7712  -50.9270 O.2       0 UNK        -0.5359 
      4 N          35.8043  -45.3345  -51.0803 N.am      1 UNK        -0.4300 
      5 CA         35.5534  -46.0386  -52.3396 C.3       1 UNK         0.0863 
      6 C6         34.2123  -45.5879  -52.9686 C.3       11 UNK        -0.0953 
      7 S7         34.0346  -46.0828  -54.7191 S.3       11 UNK        -0.2369 
      8 C8         33.5936  -44.5063  -55.5250 C.3       11 UNK         0.0226 
      9 C9         32.1119  -44.1887  -55.3696 C.ar      11 UNK        -0.0699 
     10 C10        31.6303  -43.6402  -54.1780 C.ar      11 UNK        -0.0804 
     11 C11        30.2654  -43.4051  -54.0030 C.ar      11 UNK        -0.0871 
     12 C12        29.3808  -43.6666  -55.0529 C.ar      11 UNK        -0.1008 
     13 C13        29.8508  -44.1895  -56.2617 C.ar      11 UNK        -0.0735 
     14 C14        31.2167  -44.4556  -56.4114 C.ar      11 UNK        -0.0945 
     15 C15        28.8763  -44.4934  -57.3904 C.3       11 UNK         0.0169 
     16 S16        28.0368  -42.9867  -57.9633 S.3       11 UNK        -0.2669 
     17 C17        27.1534  -43.5916  -59.4378 C.3       11 UNK        -0.0850 
     18 CA         25.6586  -43.8986  -59.1498 C.3       10 UNK         0.0855 
     19 C          24.7932  -43.7138  -60.4342 C.2       10 UNK         0.5543 
     20 N          24.1193  -44.7292  -60.9593 N.am      10 UNK        -0.7343 
     21 O          24.7240  -42.6079  -60.9651 O.2       10 UNK        -0.5027 
     22 N          25.4943  -45.1992  -58.4759 N.am      10 UNK        -0.4495 
     23 C          24.3986  -45.5661  -57.7928 C.2       10 UNK         0.4903 
     24 O          23.4822  -44.7888  -57.5197 O.2       10 UNK        -0.4860 
     25 CA         24.2891  -47.0503  -57.3643 C.3       9 UNK         0.0227 
     26 CB         22.8297  -47.4968  -57.1394 C.3       9 UNK        -0.1964 
     27 N          24.9690  -47.9798  -58.2762 N.am      9 UNK        -0.4231 
     28 C          24.8231  -48.0724  -59.6081 C.2       9 UNK         0.5014 
     29 O          23.9322  -47.4963  -60.2338 O.2       9 UNK        -0.5270 
     30 CA         25.8808  -48.8890  -60.3851 C.3       8 UNK         0.0284 
     31 CB         26.2353  -48.2236  -61.7322 C.3       8 UNK        -0.1977 
     32 N          27.1080  -49.1722  -59.6239 N.am      8 UNK        -0.4342 
     33 C          27.9339  -48.2918  -59.0363 C.2       8 UNK         0.5039 
     34 O          27.7929  -47.0683  -59.0912 O.2       8 UNK        -0.5547 
     35 CA         29.0514  -48.8959  -58.1658 C.3       7 UNK         0.0281 
     36 CB         30.3557  -48.0896  -58.2998 C.3       7 UNK        -0.1963 
     37 N          28.6932  -48.9958  -56.7427 N.am      7 UNK        -0.4444 
     38 C          27.5904  -49.5507  -56.2125 C.2       7 UNK         0.5104 
     39 O          26.6711  -50.0297  -56.8760 O.2       7 UNK        -0.5100 
     40 CA         27.4836  -49.6047  -54.6784 C.3       6 UNK         0.0396 
     41 CB         27.6930  -51.0443  -54.1832 C.3       6 UNK        -0.1801 
     42 N          28.4181  -48.7087  -53.9889 N.am      6 UNK        -0.4747 
     43 C          28.2084  -47.3912  -53.8348 C.2       6 UNK         0.5012 
     44 O          27.2245  -46.8194  -54.3071 O.2       6 UNK        -0.5003 
     45 CA         29.2638  -46.5558  -53.0719 C.3       5 UNK         0.0782 
     46 C46        28.6054  -45.4814  -52.1552 C.3       11 UNK        -0.0868 
     47 S47        29.8044  -44.3051  -51.4380 S.3       11 UNK        -0.2515 
     48 C48        29.7475  -42.9428  -52.6507 C.3       11 UNK         0.0199 
     49 N          30.3065  -47.3550  -52.4159 N.am      5 UNK        -0.4607 
     50 C          30.1764  -48.1507  -51.3461 C.2       4 UNK         0.5031 
     51 O          29.1252  -48.2991  -50.7218 O.2       4 UNK        -0.5119 
     52 CA         31.4411  -48.9376  -50.9363 C.3       4 UNK         0.0263 
     53 CB         31.1179  -50.1653  -50.0587 C.3       4 UNK        -0.1967 
     54 N          32.2845  -49.3324  -52.0772 N.am      4 UNK        -0.4237 
     55 C          31.9040  -50.0603  -53.1424 C.2       3 UNK         0.4908 
     56 O          30.7574  -50.4779  -53.2970 O.2       3 UNK        -0.5102 
     57 CA         32.9311  -50.3314  -54.2578 C.3       3 UNK         0.0241 
     58 CB         32.4671  -49.6889  -55.5757 C.3       3 UNK        -0.1971 
     59 N          34.2757  -49.8482  -53.9450 N.am      3 UNK        -0.4139 
     60 C          35.1678  -50.4971  -53.1844 C.2       2 UNK         0.5016 
     61 O          34.9828  -51.6199  -52.7144 O.2       2 UNK        -0.5319 
     62 CA         36.4784  -49.7516  -52.8700 C.3       2 UNK         0.0286 
     63 CB         37.5942  -50.1976  -53.8285 C.3       2 UNK        -0.1963 
     64 N          36.3545  -48.2884  -52.9195 N.am      2 UNK        -0.4790 
     65 C          35.5797  -47.5601  -52.1033 C.2       1 UNK         0.5024 
     66 O          34.8646  -48.0484  -51.2250 O.2       1 UNK        -0.4888 
     67 H67        36.0678  -44.1636  -48.8283 H         1 UNK         0.0892 
     68 H68        37.3711  -45.2471  -48.3371 H         1 UNK         0.0892 
     69 H69        37.7456  -43.7312  -49.1620 H         1 UNK         0.0892 
     70 H70        34.9913  -44.9405  -50.6291 H         1 UNK         0.3107 
     71 H71        36.3591  -45.7721  -53.0277 H         1 UNK         0.0773 
     72 H72        33.3552  -45.9580  -52.4023 H         1 UNK         0.0680 
     73 H73        34.1619  -44.5014  -52.9128 H         1 UNK         0.0680 
     74 H74        33.8494  -44.5781  -56.5831 H         1 UNK         0.0650 
     75 H75        34.2011  -43.6938  -55.1238 H         1 UNK         0.0650 
     76 H76        32.3060  -43.4314  -53.3624 H         1 UNK         0.1397 
     77 H77        28.3212  -43.4905  -54.9249 H         1 UNK         0.1363 
     78 H78        31.5842  -44.8772  -57.3370 H         1 UNK         0.1355 
     79 H79        28.1357  -45.2165  -57.0449 H         1 UNK         0.0707 
     80 H80        29.3955  -44.9506  -58.2337 H         1 UNK         0.0707 
     81 H81        27.2573  -42.8041  -60.1870 H         1 UNK         0.1034 
     82 H82        27.6577  -44.4619  -59.8617 H         1 UNK         0.1034 
     83 H83        25.2929  -43.1329  -58.4627 H         1 UNK         0.0482 
     84 H84        23.5667  -44.5695  -61.7859 H         1 UNK         0.3460 
     85 H85        24.1383  -45.6571  -60.5453 H         1 UNK         0.3460 
     86 H86        26.2144  -45.8913  -58.6644 H         1 UNK         0.2989 
     87 H87        24.8126  -47.1277  -56.4101 H         1 UNK         0.0559 
     88 H88        22.3493  -46.8970  -56.3656 H         1 UNK         0.0848 
     89 H89        22.7782  -48.5370  -56.8181 H         1 UNK         0.0848 
     90 H90        22.2337  -47.3959  -58.0471 H         1 UNK         0.0848 
     91 H91        25.7020  -48.5443  -57.8575 H         1 UNK         0.3144 
     92 H92        25.4206  -49.8549  -60.5979 H         1 UNK         0.0727 
     93 H93        26.6384  -47.2197  -61.5919 H         1 UNK         0.0790 
     94 H94        25.3561  -48.1336  -62.3715 H         1 UNK         0.0790 
     95 H95        26.9734  -48.8076  -62.2819 H         1 UNK         0.0790 
     96 H96        27.2752  -50.1530  -59.4408 H         1 UNK         0.3215 
     97 H97        29.2504  -49.9068  -58.5270 H         1 UNK         0.0863 
     98 H98        31.2036  -48.6291  -57.8810 H         1 UNK         0.0808 
     99 H99        30.2888  -47.1262  -57.7954 H         1 UNK         0.0808 
    100 H100       30.5908  -47.8932  -59.3469 H         1 UNK         0.0808 
    101 H101       29.3629  -48.6195  -56.0898 H         1 UNK         0.3118 
    102 H102       26.4652  -49.3121  -54.4135 H         1 UNK         0.0546 
    103 H103       28.6543  -51.4472  -54.5030 H         1 UNK         0.0828 
    104 H104       26.9205  -51.7063  -54.5767 H         1 UNK         0.0828 
    105 H105       27.6480  -51.1040  -53.0956 H         1 UNK         0.0828 
    106 H106       29.2431  -49.1406  -53.5825 H         1 UNK         0.3005 
    107 H107       29.7949  -46.0356  -53.8658 H         1 UNK         0.1257 
    108 H108       28.0640  -45.9574  -51.3366 H         1 UNK         0.0775 
    109 H109       27.8572  -44.9053  -52.7024 H         1 UNK         0.0775 
    110 H110       28.7282  -42.5610  -52.7290 H         1 UNK         0.0840 
    111 H111       30.3588  -42.1151  -52.2884 H         1 UNK         0.0840 
    112 H112       31.2162  -47.3096  -52.8508 H         1 UNK         0.2987 
    113 H113       32.0414  -48.2514  -50.3368 H         1 UNK         0.0785 
    114 H114       30.6061  -49.8692  -49.1422 H         1 UNK         0.0798 
    115 H115       32.0259  -50.6919  -49.7649 H         1 UNK         0.0798 
    116 H116       30.4719  -50.8739  -50.5781 H         1 UNK         0.0798 
    117 H117       33.2493  -49.0238  -52.0192 H         1 UNK         0.3079 
    118 H118       32.9704  -51.4132  -54.4030 H         1 UNK         0.0794 
    119 H119       33.1697  -49.8899  -56.3847 H         1 UNK         0.0786 
    120 H120       32.3592  -48.6074  -55.4851 H         1 UNK         0.0786 
    121 H121       31.5010  -50.0906  -55.8844 H         1 UNK         0.0786 
    122 H122       34.5235  -48.9320  -54.2917 H         1 UNK         0.3032 
    123 H123       36.7674  -50.0270  -51.8530 H         1 UNK         0.1094 
    124 H124       37.3718  -49.9285  -54.8619 H         1 UNK         0.0794 
    125 H125       38.5509  -49.7480  -53.5614 H         1 UNK         0.0794 
    126 H126       37.7277  -51.2800  -53.7953 H         1 UNK         0.0794 
    127 H127       36.9084  -47.8111  -53.6173 H         1 UNK         0.3016 
@<TRIPOS>BOND
     1    1    2 1    
     2    1   67 1    
     3    1   68 1    
     4    1   69 1    
     5    2    3 2    
     6    2    4 am   BACKBONE|DICT|INTERRES
     7    4    5 1    
     8    4   70 1    
     9    5    6 1    
    10    5   65 1    
    11    5   71 1    
    12    6    7 1    
    13    6   72 1    
    14    6   73 1    
    15    7    8 1    
    16    8    9 1    
    17    8   74 1    
    18    8   75 1    
    19    9   10 ar   
    20    9   14 ar   
    21   10   11 ar   
    22   10   76 1    
    23   11   12 ar   
    24   11   48 1    
    25   12   13 ar   
    26   12   77 1    
    27   13   14 ar   
    28   13   15 1    
    29   14   78 1    
    30   15   16 1    
    31   15   79 1    
    32   15   80 1    
    33   16   17 1    
    34   17   18 1    
    35   17   81 1    
    36   17   82 1    
    37   18   19 1    
    38   18   22 1    
    39   18   83 1    
    40   19   20 am   BACKBONE|DICT|INTERRES
    41   19   21 2    
    42   20   84 1    
    43   20   85 1    
    44   22   23 am   BACKBONE|DICT|INTERRES
    45   22   86 1    
    46   23   24 2    
    47   23   25 1    
    48   25   26 1    
    49   25   27 1    
    50   25   87 1    
    51   26   88 1    
    52   26   89 1    
    53   26   90 1    
    54   27   28 am   BACKBONE|DICT|INTERRES
    55   27   91 1    
    56   28   29 2    
    57   28   30 1    
    58   30   31 1    
    59   30   32 1    
    60   30   92 1    
    61   31   93 1    
    62   31   94 1    
    63   31   95 1    
    64   32   33 am   BACKBONE|DICT|INTERRES
    65   32   96 1    
    66   33   34 2    
    67   33   35 1    
    68   35   36 1    
    69   35   37 1    
    70   35   97 1    
    71   36   98 1    
    72   36   99 1    
    73   36  100 1    
    74   37   38 am   BACKBONE|DICT|INTERRES
    75   37  101 1    
    76   38   39 2    
    77   38   40 1    
    78   40   41 1    
    79   40   42 1    
    80   40  102 1    
    81   41  103 1    
    82   41  104 1    
    83   41  105 1    
    84   42   43 am   BACKBONE|DICT|INTERRES
    85   42  106 1    
    86   43   44 2    
    87   43   45 1    
    88   45   46 1    
    89   45   49 1    
    90   45  107 1    
    91   46   47 1    
    92   46  108 1    
    93   46  109 1    
    94   47   48 1    
    95   48  110 1    
    96   48  111 1    
    97   49   50 am   BACKBONE|DICT|INTERRES
    98   49  112 1    
    99   50   51 2    
   100   50   52 1    
   101   52   53 1    
   102   52   54 1    
   103   52  113 1    
   104   53  114 1    
   105   53  115 1    
   106   53  116 1    
   107   54   55 am   BACKBONE|DICT|INTERRES
   108   54  117 1    
   109   55   56 2    
   110   55   57 1    
   111   57   58 1    
   112   57   59 1    
   113   57  118 1    
   114   58  119 1    
   115   58  120 1    
   116   58  121 1    
   117   59   60 am   BACKBONE|DICT|INTERRES
   118   59  122 1    
   119   60   61 2    
   120   60   62 1    
   121   62   63 1    
   122   62   64 1    
   123   62  123 1    
   124   63  124 1    
   125   63  125 1    
   126   63  126 1    
   127   64   65 am   BACKBONE|DICT|INTERRES
   128   64  127 1    
   129   65   66 2    
@<TRIPOS>SUBSTRUCTURE
     1 UNK         1 GROUP             0       ****    0 ROOT    
