@<TRIPOS>MOLECULE
3R134
127   129    1
SMALL
USER_CHARGES


@<TRIPOS>ATOM
      1 CA         34.9269  -45.0431  -47.2976 C.3       0 UNK        -0.1968 
      2 C          34.9059  -45.0851  -48.8186 C.2       0 UNK         0.4852 
      3 O          35.9330  -44.8321  -49.4511 O.2       0 UNK        -0.5359 
      4 N          33.7438  -45.3930  -49.4083 N.am      1 UNK        -0.4300 
      5 CA         33.5477  -45.5269  -50.8551 C.3       1 UNK         0.0863 
      6 C6         32.0507  -45.5055  -51.2415 C.3       11 UNK        -0.0953 
      7 S7         31.1831  -43.9885  -50.7201 S.3       11 UNK        -0.2369 
      8 C8         31.7085  -42.7810  -51.9813 C.3       11 UNK         0.0226 
      9 C9         31.3156  -43.1905  -53.3945 C.ar      11 UNK        -0.0699 
     10 C10        32.2998  -43.5262  -54.3304 C.ar      11 UNK        -0.0804 
     11 C11        31.9494  -43.8930  -55.6335 C.ar      11 UNK        -0.0871 
     12 C12        30.5978  -43.9153  -55.9918 C.ar      11 UNK        -0.1008 
     13 C13        29.6023  -43.5891  -55.0675 C.ar      11 UNK        -0.0735 
     14 C14        29.9692  -43.2202  -53.7703 C.ar      11 UNK        -0.0945 
     15 C15        28.1322  -43.6700  -55.4559 C.3       11 UNK         0.0169 
     16 S16        27.6075  -42.2729  -56.4988 S.3       11 UNK        -0.2669 
     17 C17        27.8150  -42.9480  -58.1867 C.3       11 UNK        -0.0850 
     18 CA         26.4861  -43.4941  -58.7739 C.3       10 UNK         0.0855 
     19 C          26.6035  -43.7983  -60.2977 C.2       10 UNK         0.5543 
     20 N          26.2021  -44.9660  -60.7880 N.am      10 UNK        -0.7343 
     21 O          27.0583  -42.9478  -61.0587 O.2       10 UNK        -0.5027 
     22 N          25.9843  -44.6294  -57.9850 N.am      10 UNK        -0.4495 
     23 C          24.6945  -44.9006  -57.7607 C.2       10 UNK         0.4903 
     24 O          23.7650  -44.1881  -58.1442 O.2       10 UNK        -0.4860 
     25 CA         24.4060  -46.1972  -56.9787 C.3       9 UNK         0.0227 
     26 CB         22.9337  -46.6472  -57.0873 C.3       9 UNK        -0.1964 
     27 N          25.3084  -47.3050  -57.3243 N.am      9 UNK        -0.4231 
     28 C          25.4882  -47.8585  -58.5362 C.2       9 UNK         0.5014 
     29 O          24.9497  -47.4340  -59.5598 O.2       9 UNK        -0.5270 
     30 CA         26.4372  -49.0699  -58.6581 C.3       8 UNK         0.0284 
     31 CB         27.6503  -48.7168  -59.5360 C.3       8 UNK        -0.1977 
     32 N          26.9154  -49.5985  -57.3782 N.am      8 UNK        -0.4342 
     33 C          26.1694  -50.2487  -56.4740 C.2       8 UNK         0.5039 
     34 O          24.9941  -50.5664  -56.6569 O.2       8 UNK        -0.5547 
     35 CA         26.8304  -50.5503  -55.1150 C.3       7 UNK         0.0281 
     36 CB         27.4585  -51.9518  -55.1238 C.3       7 UNK        -0.1963 
     37 N          27.8331  -49.5518  -54.7161 N.am      7 UNK        -0.4444 
     38 C          27.5676  -48.2520  -54.5101 C.2       7 UNK         0.5104 
     39 O          26.4480  -47.7544  -54.6293 O.2       7 UNK        -0.5100 
     40 CA         28.7532  -47.3434  -54.1612 C.3       6 UNK         0.0396 
     41 CB         29.0621  -47.3962  -52.6591 C.3       6 UNK        -0.1801 
     42 N          29.9463  -47.6736  -54.9421 N.am      6 UNK        -0.4747 
     43 C          30.0944  -47.3779  -56.2436 C.2       6 UNK         0.5012 
     44 O          29.2554  -46.7618  -56.9025 O.2       6 UNK        -0.5003 
     45 CA         31.3620  -47.9196  -56.9400 C.3       5 UNK         0.0782 
     46 C46        32.5949  -47.0114  -56.7082 C.3       11 UNK        -0.0868 
     47 S47        32.6245  -45.5627  -57.8113 S.3       11 UNK        -0.2515 
     48 C48        33.0438  -44.2169  -56.6492 C.3       11 UNK         0.0199 
     49 N          31.6527  -49.3011  -56.5493 N.am      5 UNK        -0.4607 
     50 C          30.8428  -50.3474  -56.7625 C.2       4 UNK         0.5031 
     51 O          29.7788  -50.2728  -57.3751 O.2       4 UNK        -0.5119 
     52 CA         31.2627  -51.6971  -56.1531 C.3       4 UNK         0.0263 
     53 CB         32.0268  -52.5350  -57.1897 C.3       4 UNK        -0.1967 
     54 N          32.0700  -51.5777  -54.9367 N.am      4 UNK        -0.4237 
     55 C          31.7238  -50.9243  -53.8175 C.2       3 UNK         0.4908 
     56 O          30.6398  -50.3593  -53.6598 O.2       3 UNK        -0.5102 
     57 CA         32.7830  -50.8650  -52.7003 C.3       3 UNK         0.0241 
     58 CB         33.7002  -52.1072  -52.6725 C.3       3 UNK        -0.1971 
     59 N          33.6051  -49.6460  -52.7183 N.am      3 UNK        -0.4139 
     60 C          34.2398  -49.0703  -53.7514 C.2       2 UNK         0.5016 
     61 O          34.1072  -49.4196  -54.9260 O.2       2 UNK        -0.5319 
     62 CA         35.1960  -47.9080  -53.4052 C.3       2 UNK         0.0286 
     63 CB         35.9090  -47.3324  -54.6440 C.3       2 UNK        -0.1963 
     64 N          34.5417  -46.8084  -52.6898 N.am      2 UNK        -0.4790 
     65 C          34.2060  -46.8130  -51.3933 C.2       1 UNK         0.5024 
     66 O          34.3569  -47.7923  -50.6571 O.2       1 UNK        -0.4888 
     67 H67        35.6410  -45.7705  -46.9124 H         1 UNK         0.0892 
     68 H68        33.9500  -45.2679  -46.8698 H         1 UNK         0.0892 
     69 H69        35.2276  -44.0540  -46.9534 H         1 UNK         0.0892 
     70 H70        32.9360  -45.6013  -48.8395 H         1 UNK         0.3107 
     71 H71        34.0402  -44.6792  -51.3361 H         1 UNK         0.0773 
     72 H72        31.5349  -46.3510  -50.7819 H         1 UNK         0.0680 
     73 H73        31.9246  -45.6280  -52.3184 H         1 UNK         0.0680 
     74 H74        31.2518  -41.8173  -51.7520 H         1 UNK         0.0650 
     75 H75        32.7861  -42.6307  -51.9036 H         1 UNK         0.0650 
     76 H76        33.3424  -43.4898  -54.0460 H         1 UNK         0.1397 
     77 H77        30.3198  -44.2031  -56.9936 H         1 UNK         0.1363 
     78 H78        29.2082  -42.9660  -53.0452 H         1 UNK         0.1355 
     79 H79        27.9364  -44.6122  -55.9667 H         1 UNK         0.0707 
     80 H80        27.5084  -43.6825  -54.5608 H         1 UNK         0.0707 
     81 H81        28.5789  -43.7241  -58.2035 H         1 UNK         0.1034 
     82 H82        28.2021  -42.1362  -58.8056 H         1 UNK         0.1034 
     83 H83        25.7572  -42.6842  -58.7075 H         1 UNK         0.0482 
     84 H84        25.7829  -45.6732  -60.1953 H         1 UNK         0.3460 
     85 H85        26.2839  -45.1326  -61.7781 H         1 UNK         0.3460 
     86 H86        26.6776  -45.2894  -57.6644 H         1 UNK         0.2989 
     87 H87        24.6017  -45.9656  -55.9308 H         1 UNK         0.0559 
     88 H88        22.7520  -47.5513  -56.5060 H         1 UNK         0.0848 
     89 H89        22.6483  -46.8497  -58.1202 H         1 UNK         0.0848 
     90 H90        22.2591  -45.8788  -56.7079 H         1 UNK         0.0848 
     91 H91        25.8137  -47.6991  -56.5363 H         1 UNK         0.3144 
     92 H92        25.8768  -49.8628  -59.1572 H         1 UNK         0.0727 
     93 H93        28.2967  -49.5817  -59.6867 H         1 UNK         0.0790 
     94 H94        28.2516  -47.9226  -59.0932 H         1 UNK         0.0790 
     95 H95        27.3359  -48.3744  -60.5229 H         1 UNK         0.0790 
     96 H96        27.9031  -49.4728  -57.1784 H         1 UNK         0.3215 
     97 H97        26.0450  -50.5346  -54.3563 H         1 UNK         0.0863 
     98 H98        28.0205  -52.1513  -54.2111 H         1 UNK         0.0808 
     99 H99        28.1255  -52.0844  -55.9744 H         1 UNK         0.0808 
    100 H100       26.6857  -52.7173  -55.2045 H         1 UNK         0.0808 
    101 H101       28.7820  -49.8764  -54.5623 H         1 UNK         0.3118 
    102 H102       28.4611  -46.3194  -54.3958 H         1 UNK         0.0546 
    103 H103       28.1624  -47.2175  -52.0686 H         1 UNK         0.0828 
    104 H104       29.7762  -46.6229  -52.3873 H         1 UNK         0.0828 
    105 H105       29.4675  -48.3606  -52.3529 H         1 UNK         0.0828 
    106 H106       30.6328  -48.2671  -54.4944 H         1 UNK         0.3005 
    107 H107       31.1473  -47.9454  -58.0110 H         1 UNK         0.1257 
    108 H108       33.5093  -47.5674  -56.9217 H         1 UNK         0.0775 
    109 H109       32.6717  -46.7061  -55.6628 H         1 UNK         0.0775 
    110 H110       33.9751  -44.4754  -56.1426 H         1 UNK         0.0840 
    111 H111       33.2500  -43.3151  -57.2270 H         1 UNK         0.0840 
    112 H112       32.5131  -49.4512  -56.0274 H         1 UNK         0.2987 
    113 H113       30.3565  -52.2376  -55.8820 H         1 UNK         0.0785 
    114 H114       32.9679  -52.0629  -57.4752 H         1 UNK         0.0798 
    115 H115       31.4371  -52.6632  -58.0987 H         1 UNK         0.0798 
    116 H116       32.2513  -53.5315  -56.8088 H         1 UNK         0.0798 
    117 H117       33.0035  -51.9600  -54.9800 H         1 UNK         0.3079 
    118 H118       32.2271  -50.8475  -51.7615 H         1 UNK         0.0794 
    119 H119       34.3888  -52.1338  -53.5178 H         1 UNK         0.0786 
    120 H120       33.1186  -53.0303  -52.6857 H         1 UNK         0.0786 
    121 H121       34.3019  -52.1244  -51.7635 H         1 UNK         0.0786 
    122 H122       33.7635  -49.2162  -51.8106 H         1 UNK         0.3032 
    123 H123       35.9672  -48.3303  -52.7563 H         1 UNK         0.1094 
    124 H124       35.2117  -46.8512  -55.3291 H         1 UNK         0.0794 
    125 H125       36.6604  -46.5951  -54.3606 H         1 UNK         0.0794 
    126 H126       36.4252  -48.1162  -55.2004 H         1 UNK         0.0794 
    127 H127       34.3511  -45.9798  -53.2339 H         1 UNK         0.3016 
@<TRIPOS>BOND
     1    1    2 1    
     2    1   67 1    
     3    1   68 1    
     4    1   69 1    
     5    2    3 2    
     6    2    4 am   BACKBONE|DICT|INTERRES
     7    4    5 1    
     8    4   70 1    
     9    5    6 1    
    10    5   65 1    
    11    5   71 1    
    12    6    7 1    
    13    6   72 1    
    14    6   73 1    
    15    7    8 1    
    16    8    9 1    
    17    8   74 1    
    18    8   75 1    
    19    9   10 ar   
    20    9   14 ar   
    21   10   11 ar   
    22   10   76 1    
    23   11   12 ar   
    24   11   48 1    
    25   12   13 ar   
    26   12   77 1    
    27   13   14 ar   
    28   13   15 1    
    29   14   78 1    
    30   15   16 1    
    31   15   79 1    
    32   15   80 1    
    33   16   17 1    
    34   17   18 1    
    35   17   81 1    
    36   17   82 1    
    37   18   19 1    
    38   18   22 1    
    39   18   83 1    
    40   19   20 am   BACKBONE|DICT|INTERRES
    41   19   21 2    
    42   20   84 1    
    43   20   85 1    
    44   22   23 am   BACKBONE|DICT|INTERRES
    45   22   86 1    
    46   23   24 2    
    47   23   25 1    
    48   25   26 1    
    49   25   27 1    
    50   25   87 1    
    51   26   88 1    
    52   26   89 1    
    53   26   90 1    
    54   27   28 am   BACKBONE|DICT|INTERRES
    55   27   91 1    
    56   28   29 2    
    57   28   30 1    
    58   30   31 1    
    59   30   32 1    
    60   30   92 1    
    61   31   93 1    
    62   31   94 1    
    63   31   95 1    
    64   32   33 am   BACKBONE|DICT|INTERRES
    65   32   96 1    
    66   33   34 2    
    67   33   35 1    
    68   35   36 1    
    69   35   37 1    
    70   35   97 1    
    71   36   98 1    
    72   36   99 1    
    73   36  100 1    
    74   37   38 am   BACKBONE|DICT|INTERRES
    75   37  101 1    
    76   38   39 2    
    77   38   40 1    
    78   40   41 1    
    79   40   42 1    
    80   40  102 1    
    81   41  103 1    
    82   41  104 1    
    83   41  105 1    
    84   42   43 am   BACKBONE|DICT|INTERRES
    85   42  106 1    
    86   43   44 2    
    87   43   45 1    
    88   45   46 1    
    89   45   49 1    
    90   45  107 1    
    91   46   47 1    
    92   46  108 1    
    93   46  109 1    
    94   47   48 1    
    95   48  110 1    
    96   48  111 1    
    97   49   50 am   BACKBONE|DICT|INTERRES
    98   49  112 1    
    99   50   51 2    
   100   50   52 1    
   101   52   53 1    
   102   52   54 1    
   103   52  113 1    
   104   53  114 1    
   105   53  115 1    
   106   53  116 1    
   107   54   55 am   BACKBONE|DICT|INTERRES
   108   54  117 1    
   109   55   56 2    
   110   55   57 1    
   111   57   58 1    
   112   57   59 1    
   113   57  118 1    
   114   58  119 1    
   115   58  120 1    
   116   58  121 1    
   117   59   60 am   BACKBONE|DICT|INTERRES
   118   59  122 1    
   119   60   61 2    
   120   60   62 1    
   121   62   63 1    
   122   62   64 1    
   123   62  123 1    
   124   63  124 1    
   125   63  125 1    
   126   63  126 1    
   127   64   65 am   BACKBONE|DICT|INTERRES
   128   64  127 1    
   129   65   66 2    
@<TRIPOS>SUBSTRUCTURE
     1 UNK         1 GROUP             0       ****    0 ROOT    
