@<TRIPOS>MOLECULE
3R134
127   129    1
SMALL
USER_CHARGES


@<TRIPOS>ATOM
      1 CA         33.4363  -50.4622  -57.3452 C.3       0 UNK        -0.1968 
      2 C          33.0981  -49.4656  -56.2489 C.2       0 UNK         0.4852 
      3 O          32.2707  -49.7609  -55.3849 O.2       0 UNK        -0.5359 
      4 N          33.7223  -48.2800  -56.2740 N.am      1 UNK        -0.4300 
      5 CA         33.5740  -47.2679  -55.2219 C.3       1 UNK         0.0863 
      6 C6         33.9673  -45.8389  -55.6734 C.3       11 UNK        -0.0953 
      7 S7         33.1341  -45.2538  -57.1918 S.3       11 UNK        -0.2369 
      8 C8         31.3610  -45.5464  -56.8849 C.3       11 UNK         0.0226 
      9 C9         30.7297  -44.5162  -55.9580 C.ar      11 UNK        -0.0699 
     10 C10        30.8568  -44.6252  -54.5694 C.ar      11 UNK        -0.0804 
     11 C11        30.1945  -43.7356  -53.7125 C.ar      11 UNK        -0.0871 
     12 C12        29.4211  -42.7117  -54.2720 C.ar      11 UNK        -0.1008 
     13 C13        29.2990  -42.5798  -55.6585 C.ar      11 UNK        -0.0735 
     14 C14        29.9602  -43.4816  -56.4949 C.ar      11 UNK        -0.0945 
     15 C15        28.4413  -41.4769  -56.2596 C.3       11 UNK         0.0169 
     16 S16        26.6865  -41.9604  -56.2850 S.3       11 UNK        -0.2669 
     17 C17        26.0456  -40.9777  -57.6880 C.3       11 UNK        -0.0850 
     18 CA         24.8213  -41.6423  -58.3741 C.3       10 UNK         0.0855 
     19 C          24.3261  -40.7778  -59.5654 C.2       10 UNK         0.5543 
     20 N          23.3880  -39.8720  -59.3265 N.am      10 UNK        -0.7343 
     21 O          24.8184  -40.8889  -60.6868 O.2       10 UNK        -0.5027 
     22 N          25.1132  -43.0324  -58.7489 N.am      10 UNK        -0.4495 
     23 C          24.2404  -43.9332  -59.2183 C.2       10 UNK         0.4903 
     24 O          23.0551  -43.6945  -59.4515 O.2       10 UNK        -0.4860 
     25 CA         24.7783  -45.3626  -59.4300 C.3       9 UNK         0.0227 
     26 CB         25.2057  -45.5668  -60.8921 C.3       9 UNK        -0.1964 
     27 N          25.9049  -45.6823  -58.5461 N.am      9 UNK        -0.4231 
     28 C          25.8288  -45.8167  -57.2158 C.2       9 UNK         0.5014 
     29 O          24.7676  -45.8371  -56.5890 O.2       9 UNK        -0.5270 
     30 CA         27.1727  -45.9308  -56.4740 C.3       8 UNK         0.0284 
     31 CB         27.0325  -45.6911  -54.9630 C.3       8 UNK        -0.1977 
     32 N          27.8433  -47.2126  -56.7048 N.am      8 UNK        -0.4342 
     33 C          28.4486  -47.5682  -57.8463 C.2       8 UNK         0.5039 
     34 O          28.4993  -46.8272  -58.8306 O.2       8 UNK        -0.5547 
     35 CA         29.1219  -48.9545  -57.9153 C.3       7 UNK         0.0281 
     36 CB         30.4454  -48.9041  -58.7000 C.3       7 UNK        -0.1963 
     37 N          29.3596  -49.5633  -56.6000 N.am      7 UNK        -0.4444 
     38 C          28.4741  -50.3234  -55.9411 C.2       7 UNK         0.5104 
     39 O          27.3459  -50.5797  -56.3610 O.2       7 UNK        -0.5100 
     40 CA         28.9112  -50.8648  -54.5697 C.3       6 UNK         0.0396 
     41 CB         29.6786  -52.1853  -54.7377 C.3       6 UNK        -0.1801 
     42 N          29.7292  -49.9102  -53.8159 N.am      6 UNK        -0.4747 
     43 C          29.2742  -48.7566  -53.3038 C.2       6 UNK         0.5012 
     44 O          28.0975  -48.4032  -53.3876 O.2       6 UNK        -0.5003 
     45 CA         30.3150  -47.8460  -52.6144 C.3       5 UNK         0.0782 
     46 C46        29.6996  -46.6066  -51.9048 C.3       11 UNK        -0.0868 
     47 S47        30.9779  -45.3702  -51.4880 S.3       11 UNK        -0.2515 
     48 C48        30.2822  -43.8257  -52.1847 C.3       11 UNK         0.0199 
     49 N          31.2425  -48.5973  -51.7584 N.am      5 UNK        -0.4607 
     50 C          30.9177  -49.3154  -50.6731 C.2       4 UNK         0.5031 
     51 O          29.7656  -49.4419  -50.2540 O.2       4 UNK        -0.5119 
     52 CA         32.0830  -50.0015  -49.9291 C.3       4 UNK         0.0263 
     53 CB         31.6043  -51.0495  -48.9014 C.3       4 UNK        -0.1967 
     54 N          33.0863  -50.5879  -50.8269 N.am      4 UNK        -0.4237 
     55 C          32.8919  -51.5076  -51.7839 C.2       3 UNK         0.4908 
     56 O          31.7963  -52.0083  -52.0367 O.2       3 UNK        -0.5102 
     57 CA         34.1321  -51.9234  -52.6035 C.3       3 UNK         0.0241 
     58 CB         33.7709  -52.8071  -53.8134 C.3       3 UNK        -0.1971 
     59 N          34.8939  -50.7660  -53.0799 N.am      3 UNK        -0.4139 
     60 C          35.7418  -50.0268  -52.3512 C.2       2 UNK         0.5016 
     61 O          36.0025  -50.2594  -51.1705 O.2       2 UNK        -0.5319 
     62 CA         36.3600  -48.7931  -53.0328 C.3       2 UNK         0.0286 
     63 CB         37.7571  -49.1252  -53.5803 C.3       2 UNK        -0.1963 
     64 N          35.5315  -48.2513  -54.1155 N.am      2 UNK        -0.4790 
     65 C          34.3283  -47.6811  -53.9451 C.2       1 UNK         0.5024 
     66 O          33.7905  -47.5334  -52.8475 O.2       1 UNK        -0.4888 
     67 H67        32.5780  -51.0990  -57.5570 H         1 UNK         0.0892 
     68 H68        34.2599  -51.1016  -57.0292 H         1 UNK         0.0892 
     69 H69        33.7218  -49.9590  -58.2687 H         1 UNK         0.0892 
     70 H70        34.3622  -48.0581  -57.0241 H         1 UNK         0.3107 
     71 H71        32.5250  -47.2470  -54.9414 H         1 UNK         0.0773 
     72 H72        35.0422  -45.7839  -55.8552 H         1 UNK         0.0680 
     73 H73        33.7636  -45.1182  -54.8794 H         1 UNK         0.0680 
     74 H74        30.8570  -45.5196  -57.8522 H         1 UNK         0.0650 
     75 H75        31.1840  -46.5512  -56.5060 H         1 UNK         0.0650 
     76 H76        31.4687  -45.4099  -54.1592 H         1 UNK         0.1397 
     77 H77        28.9016  -42.0163  -53.6264 H         1 UNK         0.1363 
     78 H78        29.8529  -43.3943  -57.5676 H         1 UNK         0.1355 
     79 H79        28.5539  -40.5557  -55.6859 H         1 UNK         0.0707 
     80 H80        28.7874  -41.2538  -57.2697 H         1 UNK         0.0707 
     81 H81        26.8423  -40.8260  -58.4189 H         1 UNK         0.1034 
     82 H82        25.7822  -39.9857  -57.3158 H         1 UNK         0.1034 
     83 H83        24.0144  -41.6886  -57.6398 H         1 UNK         0.0482 
     84 H84        22.9863  -39.7664  -58.4076 H         1 UNK         0.3460 
     85 H85        23.0653  -39.2890  -60.0832 H         1 UNK         0.3460 
     86 H86        26.0628  -43.3315  -58.5907 H         1 UNK         0.2989 
     87 H87        23.9671  -46.0593  -59.2090 H         1 UNK         0.0559 
     88 H88        24.3772  -45.3635  -61.5722 H         1 UNK         0.0848 
     89 H89        25.5275  -46.5927  -61.0726 H         1 UNK         0.0848 
     90 H90        26.0256  -44.9034  -61.1704 H         1 UNK         0.0848 
     91 H91        26.8234  -45.7925  -58.9692 H         1 UNK         0.3144 
     92 H92        27.8110  -45.1373  -56.8641 H         1 UNK         0.0727 
     93 H93        26.4535  -46.4760  -54.4754 H         1 UNK         0.0790 
     94 H94        26.5370  -44.7406  -54.7610 H         1 UNK         0.0790 
     95 H95        28.0118  -45.6446  -54.4925 H         1 UNK         0.0790 
     96 H96        27.8039  -47.8839  -55.9502 H         1 UNK         0.3215 
     97 H97        28.4390  -49.5931  -58.4799 H         1 UNK         0.0863 
     98 H98        30.8772  -49.8983  -58.8075 H         1 UNK         0.0808 
     99 H99        31.1814  -48.2613  -58.2188 H         1 UNK         0.0808 
    100 H100       30.2913  -48.5187  -59.7089 H         1 UNK         0.0808 
    101 H101       30.2697  -49.4246  -56.1750 H         1 UNK         0.3118 
    102 H102       28.0088  -51.0690  -53.9896 H         1 UNK         0.0546 
    103 H103       30.6303  -52.0391  -55.2501 H         1 UNK         0.0828 
    104 H104       29.1002  -52.9039  -55.3198 H         1 UNK         0.0828 
    105 H105       29.8851  -52.6474  -53.7727 H         1 UNK         0.0828 
    106 H106       30.7169  -50.1245  -53.7411 H         1 UNK         0.3005 
    107 H107       30.9164  -47.4753  -53.4392 H         1 UNK         0.1257 
    108 H108       29.1767  -46.8977  -50.9929 H         1 UNK         0.0775 
    109 H109       28.9515  -46.1251  -52.5326 H         1 UNK         0.0775 
    110 H110       30.8939  -42.9941  -51.8324 H         1 UNK         0.0840 
    111 H111       29.2898  -43.6765  -51.7559 H         1 UNK         0.0840 
    112 H112       32.2223  -48.5089  -52.0073 H         1 UNK         0.2987 
    113 H113       32.5930  -49.2099  -49.3781 H         1 UNK         0.0785 
    114 H114       32.4440  -51.4969  -48.3699 H         1 UNK         0.0798 
    115 H115       31.0416  -51.8534  -49.3775 H         1 UNK         0.0798 
    116 H116       30.9537  -50.5961  -48.1526 H         1 UNK         0.0798 
    117 H117       34.0388  -50.2562  -50.7063 H         1 UNK         0.3079 
    118 H118       34.7692  -52.5117  -51.9398 H         1 UNK         0.0794 
    119 H119       33.1098  -52.2880  -54.5084 H         1 UNK         0.0786 
    120 H120       33.2595  -53.7167  -53.4957 H         1 UNK         0.0786 
    121 H121       34.6613  -53.1143  -54.3620 H         1 UNK         0.0786 
    122 H122       34.7003  -50.4633  -54.0226 H         1 UNK         0.3032 
    123 H123       36.4639  -48.0198  -52.2678 H         1 UNK         0.1094 
    124 H124       38.2428  -48.2406  -53.9928 H         1 UNK         0.0794 
    125 H125       38.4046  -49.5079  -52.7899 H         1 UNK         0.0794 
    126 H126       37.7162  -49.8836  -54.3633 H         1 UNK         0.0794 
    127 H127       35.8970  -48.3363  -55.0532 H         1 UNK         0.3016 
@<TRIPOS>BOND
     1    1    2 1    
     2    1   67 1    
     3    1   68 1    
     4    1   69 1    
     5    2    3 2    
     6    2    4 am   BACKBONE|DICT|INTERRES
     7    4    5 1    
     8    4   70 1    
     9    5    6 1    
    10    5   65 1    
    11    5   71 1    
    12    6    7 1    
    13    6   72 1    
    14    6   73 1    
    15    7    8 1    
    16    8    9 1    
    17    8   74 1    
    18    8   75 1    
    19    9   10 ar   
    20    9   14 ar   
    21   10   11 ar   
    22   10   76 1    
    23   11   12 ar   
    24   11   48 1    
    25   12   13 ar   
    26   12   77 1    
    27   13   14 ar   
    28   13   15 1    
    29   14   78 1    
    30   15   16 1    
    31   15   79 1    
    32   15   80 1    
    33   16   17 1    
    34   17   18 1    
    35   17   81 1    
    36   17   82 1    
    37   18   19 1    
    38   18   22 1    
    39   18   83 1    
    40   19   20 am   BACKBONE|DICT|INTERRES
    41   19   21 2    
    42   20   84 1    
    43   20   85 1    
    44   22   23 am   BACKBONE|DICT|INTERRES
    45   22   86 1    
    46   23   24 2    
    47   23   25 1    
    48   25   26 1    
    49   25   27 1    
    50   25   87 1    
    51   26   88 1    
    52   26   89 1    
    53   26   90 1    
    54   27   28 am   BACKBONE|DICT|INTERRES
    55   27   91 1    
    56   28   29 2    
    57   28   30 1    
    58   30   31 1    
    59   30   32 1    
    60   30   92 1    
    61   31   93 1    
    62   31   94 1    
    63   31   95 1    
    64   32   33 am   BACKBONE|DICT|INTERRES
    65   32   96 1    
    66   33   34 2    
    67   33   35 1    
    68   35   36 1    
    69   35   37 1    
    70   35   97 1    
    71   36   98 1    
    72   36   99 1    
    73   36  100 1    
    74   37   38 am   BACKBONE|DICT|INTERRES
    75   37  101 1    
    76   38   39 2    
    77   38   40 1    
    78   40   41 1    
    79   40   42 1    
    80   40  102 1    
    81   41  103 1    
    82   41  104 1    
    83   41  105 1    
    84   42   43 am   BACKBONE|DICT|INTERRES
    85   42  106 1    
    86   43   44 2    
    87   43   45 1    
    88   45   46 1    
    89   45   49 1    
    90   45  107 1    
    91   46   47 1    
    92   46  108 1    
    93   46  109 1    
    94   47   48 1    
    95   48  110 1    
    96   48  111 1    
    97   49   50 am   BACKBONE|DICT|INTERRES
    98   49  112 1    
    99   50   51 2    
   100   50   52 1    
   101   52   53 1    
   102   52   54 1    
   103   52  113 1    
   104   53  114 1    
   105   53  115 1    
   106   53  116 1    
   107   54   55 am   BACKBONE|DICT|INTERRES
   108   54  117 1    
   109   55   56 2    
   110   55   57 1    
   111   57   58 1    
   112   57   59 1    
   113   57  118 1    
   114   58  119 1    
   115   58  120 1    
   116   58  121 1    
   117   59   60 am   BACKBONE|DICT|INTERRES
   118   59  122 1    
   119   60   61 2    
   120   60   62 1    
   121   62   63 1    
   122   62   64 1    
   123   62  123 1    
   124   63  124 1    
   125   63  125 1    
   126   63  126 1    
   127   64   65 am   BACKBONE|DICT|INTERRES
   128   64  127 1    
   129   65   66 2    
@<TRIPOS>SUBSTRUCTURE
     1 UNK         1 GROUP             0       ****    0 ROOT    
