@<TRIPOS>MOLECULE
3R134
127   129    1
SMALL
USER_CHARGES


@<TRIPOS>ATOM
      1 CA         38.2932  -47.8397  -52.3779 C.3       0 UNK        -0.1968 
      2 C          37.1197  -46.8717  -52.3666 C.2       0 UNK         0.4852 
      3 O          36.7092  -46.4230  -51.2953 O.2       0 UNK        -0.5359 
      4 N          36.5653  -46.5605  -53.5478 N.am      1 UNK        -0.4300 
      5 CA         35.4426  -45.6441  -53.8116 C.3       1 UNK         0.0863 
      6 C6         35.6941  -44.1919  -53.3061 C.3       11 UNK        -0.0953 
      7 S7         35.3472  -42.9268  -54.5758 S.3       11 UNK        -0.2369 
      8 C8         34.1606  -41.8273  -53.7401 C.3       11 UNK         0.0226 
      9 C9         32.7249  -42.2716  -53.9716 C.ar      11 UNK        -0.0699 
     10 C10        32.1159  -43.1745  -53.0978 C.ar      11 UNK        -0.0804 
     11 C11        30.8033  -43.6000  -53.3148 C.ar      11 UNK        -0.0871 
     12 C12        30.0976  -43.0922  -54.4119 C.ar      11 UNK        -0.1008 
     13 C13        30.6856  -42.1801  -55.2970 C.ar      11 UNK        -0.0735 
     14 C14        32.0052  -41.7795  -55.0651 C.ar      11 UNK        -0.0945 
     15 C15        29.9580  -41.6160  -56.5236 C.3       11 UNK         0.0169 
     16 S16        28.1703  -41.9922  -56.6614 S.3       11 UNK        -0.2669 
     17 C17        28.2015  -43.7676  -57.0908 C.3       11 UNK        -0.0850 
     18 CA         27.8247  -44.0642  -58.5630 C.3       10 UNK         0.0855 
     19 C          28.9418  -43.6041  -59.5450 C.2       10 UNK         0.5543 
     20 N          28.7916  -42.4397  -60.1608 N.am      10 UNK        -0.7343 
     21 O          29.9534  -44.2790  -59.7229 O.2       10 UNK        -0.5027 
     22 N          27.4898  -45.4880  -58.7126 N.am      10 UNK        -0.4495 
     23 C          27.0632  -46.0693  -59.8425 C.2       10 UNK         0.4903 
     24 O          26.7840  -45.4571  -60.8736 O.2       10 UNK        -0.4860 
     25 CA         26.9210  -47.5970  -59.8193 C.3       9 UNK         0.0227 
     26 CB         28.2730  -48.2636  -60.1239 C.3       9 UNK        -0.1964 
     27 N          26.4326  -48.0780  -58.5287 N.am      9 UNK        -0.4231 
     28 C          25.1447  -48.2425  -58.2031 C.2       9 UNK         0.5014 
     29 O          24.2068  -47.9790  -58.9586 O.2       9 UNK        -0.5270 
     30 CA         24.8734  -48.8167  -56.7964 C.3       8 UNK         0.0284 
     31 CB         23.4308  -49.3358  -56.6203 C.3       8 UNK        -0.1977 
     32 N          25.8494  -49.8439  -56.4049 N.am      8 UNK        -0.4342 
     33 C          26.1282  -50.9949  -57.0396 C.2       8 UNK         0.5039 
     34 O          25.5150  -51.4004  -58.0279 O.2       8 UNK        -0.5547 
     35 CA         27.3174  -51.8257  -56.5200 C.3       7 UNK         0.0281 
     36 CB         28.4716  -51.7831  -57.5364 C.3       7 UNK        -0.1963 
     37 N          27.8195  -51.3790  -55.2179 N.am      7 UNK        -0.4444 
     38 C          27.2463  -51.6660  -54.0415 C.2       7 UNK         0.5104 
     39 O          26.2621  -52.3954  -53.9174 O.2       7 UNK        -0.5100 
     40 CA         27.8479  -50.9878  -52.7969 C.3       6 UNK         0.0396 
     41 CB         29.0758  -51.7640  -52.2979 C.3       6 UNK        -0.1801 
     42 N          28.2046  -49.5800  -53.0130 N.am      6 UNK        -0.4747 
     43 C          27.3363  -48.6153  -53.3592 C.2       6 UNK         0.5012 
     44 O          26.1393  -48.8129  -53.5629 O.2       6 UNK        -0.5003 
     45 CA         27.9011  -47.1999  -53.5508 C.3       5 UNK         0.0782 
     46 C46        28.0884  -46.5026  -52.1793 C.3       11 UNK        -0.0868 
     47 S47        28.3864  -44.7161  -52.3528 S.3       11 UNK        -0.2515 
     48 C48        30.2107  -44.6606  -52.3899 C.3       11 UNK         0.0199 
     49 N          29.1341  -47.2697  -54.3397 N.am      5 UNK        -0.4607 
     50 C          29.1764  -47.3630  -55.6763 C.2       4 UNK         0.5031 
     51 O          28.1851  -47.2758  -56.4030 O.2       4 UNK        -0.5119 
     52 CA         30.5473  -47.6238  -56.3238 C.3       4 UNK         0.0263 
     53 CB         31.1732  -46.3121  -56.8183 C.3       4 UNK        -0.1967 
     54 N          31.4860  -48.3054  -55.4301 N.am      4 UNK        -0.4237 
     55 C          31.3704  -49.5905  -55.0604 C.2       3 UNK         0.4908 
     56 O          30.4632  -50.3277  -55.4434 O.2       3 UNK        -0.5102 
     57 CA         32.4044  -50.1425  -54.0622 C.3       3 UNK         0.0241 
     58 CB         33.5966  -50.7555  -54.8131 C.3       3 UNK        -0.1971 
     59 N          32.8939  -49.1513  -53.1027 N.am      3 UNK        -0.4139 
     60 C          32.1316  -48.4226  -52.2753 C.2       2 UNK         0.5016 
     61 O          30.9074  -48.5375  -52.1905 O.2       2 UNK        -0.5319 
     62 CA         32.8522  -47.3366  -51.4564 C.3       2 UNK         0.0286 
     63 CB         33.2795  -47.8982  -50.0920 C.3       2 UNK        -0.1963 
     64 N          34.0218  -46.7403  -52.1190 N.am      2 UNK        -0.4790 
     65 C          34.0790  -46.2043  -53.3484 C.2       1 UNK         0.5024 
     66 O          33.1243  -46.1902  -54.1248 O.2       1 UNK        -0.4888 
     67 H67        38.0552  -48.7244  -51.7879 H         1 UNK         0.0892 
     68 H68        38.5474  -48.1631  -53.3871 H         1 UNK         0.0892 
     69 H69        39.1726  -47.3662  -51.9424 H         1 UNK         0.0892 
     70 H70        36.9471  -46.9927  -54.3783 H         1 UNK         0.3107 
     71 H71        35.3881  -45.6192  -54.9014 H         1 UNK         0.0773 
     72 H72        35.1441  -43.9790  -52.3877 H         1 UNK         0.0680 
     73 H73        36.7437  -44.0588  -53.0398 H         1 UNK         0.0680 
     74 H74        34.3809  -41.7700  -52.6732 H         1 UNK         0.0650 
     75 H75        34.2966  -40.8164  -54.1272 H         1 UNK         0.0650 
     76 H76        32.6759  -43.5674  -52.2606 H         1 UNK         0.1397 
     77 H77        29.0878  -43.4269  -54.5817 H         1 UNK         0.1363 
     78 H78        32.4794  -41.0842  -55.7446 H         1 UNK         0.1355 
     79 H79        30.4630  -41.9656  -57.4251 H         1 UNK         0.0707 
     80 H80        30.0635  -40.5301  -56.5169 H         1 UNK         0.0707 
     81 H81        29.1753  -44.1944  -56.8519 H         1 UNK         0.1034 
     82 H82        27.4937  -44.2617  -56.4226 H         1 UNK         0.1034 
     83 H83        26.9124  -43.5121  -58.7979 H         1 UNK         0.0482 
     84 H84        27.9745  -41.8709  -60.0022 H         1 UNK         0.3460 
     85 H85        29.5095  -42.1217  -60.7925 H         1 UNK         0.3460 
     86 H86        27.6996  -46.0823  -57.9181 H         1 UNK         0.2989 
     87 H87        26.2177  -47.8855  -60.6037 H         1 UNK         0.0559 
     88 H88        29.0287  -48.0094  -59.3796 H         1 UNK         0.0848 
     89 H89        28.6537  -47.9451  -61.0954 H         1 UNK         0.0848 
     90 H90        28.1818  -49.3496  -60.1521 H         1 UNK         0.0848 
     91 H91        27.1246  -48.2183  -57.8000 H         1 UNK         0.3144 
     92 H92        25.0118  -47.9870  -56.1016 H         1 UNK         0.0727 
     93 H93        22.7049  -48.5394  -56.7886 H         1 UNK         0.0790 
     94 H94        23.2678  -49.7136  -55.6109 H         1 UNK         0.0790 
     95 H95        23.2011  -50.1390  -57.3211 H         1 UNK         0.0790 
     96 H96        26.3752  -49.6332  -55.5659 H         1 UNK         0.3215 
     97 H97        26.9790  -52.8603  -56.4295 H         1 UNK         0.0863 
     98 H98        29.3113  -52.3968  -57.2097 H         1 UNK         0.0808 
     99 H99        28.8388  -50.7669  -57.6865 H         1 UNK         0.0808 
    100 H100       28.1532  -52.1614  -58.5088 H         1 UNK         0.0808 
    101 H101       28.6806  -50.8343  -55.2247 H         1 UNK         0.3118 
    102 H102       27.0922  -51.0106  -52.0090 H         1 UNK         0.0546 
    103 H103       29.8429  -51.8398  -53.0676 H         1 UNK         0.0828 
    104 H104       28.8020  -52.7811  -52.0148 H         1 UNK         0.0828 
    105 H105       29.5209  -51.2913  -51.4221 H         1 UNK         0.0828 
    106 H106       29.1708  -49.3196  -52.8367 H         1 UNK         0.3005 
    107 H107       27.1562  -46.6346  -54.1168 H         1 UNK         0.1257 
    108 H108       28.8906  -46.9605  -51.5987 H         1 UNK         0.0775 
    109 H109       27.1858  -46.6084  -51.5737 H         1 UNK         0.0775 
    110 H110       30.5702  -44.5167  -51.3700 H         1 UNK         0.0840 
    111 H111       30.5953  -45.6215  -52.7269 H         1 UNK         0.0840 
    112 H112       29.9892  -47.4058  -53.8171 H         1 UNK         0.2987 
    113 H113       30.3842  -48.2687  -57.1899 H         1 UNK         0.0785 
    114 H114       31.2531  -45.5715  -56.0207 H         1 UNK         0.0798 
    115 H115       30.5732  -45.8777  -57.6171 H         1 UNK         0.0798 
    116 H116       32.1719  -46.4741  -57.2240 H         1 UNK         0.0798 
    117 H117       32.2236  -47.7337  -55.0290 H         1 UNK         0.3079 
    118 H118       31.9205  -50.9341  -53.4892 H         1 UNK         0.0794 
    119 H119       33.2622  -51.5165  -55.5200 H         1 UNK         0.0786 
    120 H120       34.2932  -51.2382  -54.1274 H         1 UNK         0.0786 
    121 H121       34.1476  -50.0038  -55.3799 H         1 UNK         0.0786 
    122 H122       33.8873  -48.9730  -53.0997 H         1 UNK         0.3032 
    123 H123       32.1361  -46.5354  -51.2769 H         1 UNK         0.1094 
    124 H124       33.6930  -47.1173  -49.4535 H         1 UNK         0.0794 
    125 H125       32.4290  -48.3306  -49.5626 H         1 UNK         0.0794 
    126 H126       34.0329  -48.6803  -50.1950 H         1 UNK         0.0794 
    127 H127       34.8833  -46.7000  -51.5770 H         1 UNK         0.3016 
@<TRIPOS>BOND
     1    1    2 1    
     2    1   67 1    
     3    1   68 1    
     4    1   69 1    
     5    2    3 2    
     6    2    4 am   BACKBONE|DICT|INTERRES
     7    4    5 1    
     8    4   70 1    
     9    5    6 1    
    10    5   65 1    
    11    5   71 1    
    12    6    7 1    
    13    6   72 1    
    14    6   73 1    
    15    7    8 1    
    16    8    9 1    
    17    8   74 1    
    18    8   75 1    
    19    9   10 ar   
    20    9   14 ar   
    21   10   11 ar   
    22   10   76 1    
    23   11   12 ar   
    24   11   48 1    
    25   12   13 ar   
    26   12   77 1    
    27   13   14 ar   
    28   13   15 1    
    29   14   78 1    
    30   15   16 1    
    31   15   79 1    
    32   15   80 1    
    33   16   17 1    
    34   17   18 1    
    35   17   81 1    
    36   17   82 1    
    37   18   19 1    
    38   18   22 1    
    39   18   83 1    
    40   19   20 am   BACKBONE|DICT|INTERRES
    41   19   21 2    
    42   20   84 1    
    43   20   85 1    
    44   22   23 am   BACKBONE|DICT|INTERRES
    45   22   86 1    
    46   23   24 2    
    47   23   25 1    
    48   25   26 1    
    49   25   27 1    
    50   25   87 1    
    51   26   88 1    
    52   26   89 1    
    53   26   90 1    
    54   27   28 am   BACKBONE|DICT|INTERRES
    55   27   91 1    
    56   28   29 2    
    57   28   30 1    
    58   30   31 1    
    59   30   32 1    
    60   30   92 1    
    61   31   93 1    
    62   31   94 1    
    63   31   95 1    
    64   32   33 am   BACKBONE|DICT|INTERRES
    65   32   96 1    
    66   33   34 2    
    67   33   35 1    
    68   35   36 1    
    69   35   37 1    
    70   35   97 1    
    71   36   98 1    
    72   36   99 1    
    73   36  100 1    
    74   37   38 am   BACKBONE|DICT|INTERRES
    75   37  101 1    
    76   38   39 2    
    77   38   40 1    
    78   40   41 1    
    79   40   42 1    
    80   40  102 1    
    81   41  103 1    
    82   41  104 1    
    83   41  105 1    
    84   42   43 am   BACKBONE|DICT|INTERRES
    85   42  106 1    
    86   43   44 2    
    87   43   45 1    
    88   45   46 1    
    89   45   49 1    
    90   45  107 1    
    91   46   47 1    
    92   46  108 1    
    93   46  109 1    
    94   47   48 1    
    95   48  110 1    
    96   48  111 1    
    97   49   50 am   BACKBONE|DICT|INTERRES
    98   49  112 1    
    99   50   51 2    
   100   50   52 1    
   101   52   53 1    
   102   52   54 1    
   103   52  113 1    
   104   53  114 1    
   105   53  115 1    
   106   53  116 1    
   107   54   55 am   BACKBONE|DICT|INTERRES
   108   54  117 1    
   109   55   56 2    
   110   55   57 1    
   111   57   58 1    
   112   57   59 1    
   113   57  118 1    
   114   58  119 1    
   115   58  120 1    
   116   58  121 1    
   117   59   60 am   BACKBONE|DICT|INTERRES
   118   59  122 1    
   119   60   61 2    
   120   60   62 1    
   121   62   63 1    
   122   62   64 1    
   123   62  123 1    
   124   63  124 1    
   125   63  125 1    
   126   63  126 1    
   127   64   65 am   BACKBONE|DICT|INTERRES
   128   64  127 1    
   129   65   66 2    
@<TRIPOS>SUBSTRUCTURE
     1 UNK         1 GROUP             0       ****    0 ROOT    
