@<TRIPOS>MOLECULE
3R134
127   129    1
SMALL
USER_CHARGES


@<TRIPOS>ATOM
      1 CA         38.6727  -45.0353  -50.6208 C.3       0 UNK        -0.1968 
      2 C          37.9346  -45.2739  -51.9303 C.2       0 UNK         0.4852 
      3 O          38.5560  -45.2530  -52.9947 O.2       0 UNK        -0.5359 
      4 N          36.6149  -45.4911  -51.8605 N.am      1 UNK        -0.4300 
      5 CA         35.7478  -45.7842  -53.0081 C.3       1 UNK         0.0863 
      6 C6         34.2457  -45.5828  -52.6752 C.3       11 UNK        -0.0953 
      7 S7         33.9000  -43.9483  -51.9392 S.3       11 UNK        -0.2369 
      8 C8         33.4039  -42.9636  -53.3902 C.3       11 UNK         0.0226 
      9 C9         31.9555  -43.1940  -53.8070 C.ar      11 UNK        -0.0699 
     10 C10        30.9192  -43.0538  -52.8765 C.ar      11 UNK        -0.0804 
     11 C11        29.5860  -43.2184  -53.2631 C.ar      11 UNK        -0.0871 
     12 C12        29.2903  -43.5132  -54.5952 C.ar      11 UNK        -0.1008 
     13 C13        30.3139  -43.6524  -55.5364 C.ar      11 UNK        -0.0735 
     14 C14        31.6451  -43.4956  -55.1374 C.ar      11 UNK        -0.0945 
     15 C15        29.9694  -43.9843  -56.9783 C.3       11 UNK         0.0169 
     16 S16        29.1190  -42.5982  -57.7989 S.3       11 UNK        -0.2669 
     17 C17        27.9216  -43.5329  -58.8047 C.3       11 UNK        -0.0850 
     18 CA         26.6603  -43.9418  -57.9780 C.3       10 UNK         0.0855 
     19 C          25.4471  -42.9783  -58.1418 C.2       10 UNK         0.5543 
     20 N          25.6872  -41.6745  -58.1779 N.am      10 UNK        -0.7343 
     21 O          24.2890  -43.3896  -58.1891 O.2       10 UNK        -0.5027 
     22 N          26.3362  -45.3631  -58.1484 N.am      10 UNK        -0.4495 
     23 C          25.9724  -45.9613  -59.2895 C.2       10 UNK         0.4903 
     24 O          25.8174  -45.3733  -60.3618 O.2       10 UNK        -0.4860 
     25 CA         25.8049  -47.4901  -59.2081 C.3       9 UNK         0.0227 
     26 CB         25.5553  -48.1509  -60.5801 C.3       9 UNK        -0.1964 
     27 N          26.9321  -48.1284  -58.5165 N.am      9 UNK        -0.4231 
     28 C          28.2330  -48.0973  -58.8527 C.2       9 UNK         0.5014 
     29 O          28.6724  -47.5419  -59.8604 O.2       9 UNK        -0.5270 
     30 CA         29.2278  -48.7868  -57.8967 C.3       8 UNK         0.0284 
     31 CB         30.0424  -47.7356  -57.1233 C.3       8 UNK        -0.1977 
     32 N          28.5871  -49.6795  -56.9302 N.am      8 UNK        -0.4342 
     33 C          28.0197  -50.8593  -57.2108 C.2       8 UNK         0.5039 
     34 O          28.0535  -51.3953  -58.3186 O.2       8 UNK        -0.5547 
     35 CA         27.2384  -51.5224  -56.0655 C.3       7 UNK         0.0281 
     36 CB         28.1797  -52.3189  -55.1470 C.3       7 UNK        -0.1963 
     37 N          26.4883  -50.5401  -55.2747 N.am      7 UNK        -0.4444 
     38 C          25.3801  -49.9121  -55.6929 C.2       7 UNK         0.5104 
     39 O          24.8539  -50.1113  -56.7870 O.2       7 UNK        -0.5100 
     40 CA         24.7621  -48.8710  -54.7437 C.3       6 UNK         0.0396 
     41 CB         23.7747  -49.5453  -53.7786 C.3       6 UNK        -0.1801 
     42 N          25.7637  -48.1281  -53.9754 N.am      6 UNK        -0.4747 
     43 C          26.5485  -47.1645  -54.4798 C.2       6 UNK         0.5012 
     44 O          26.5043  -46.7846  -55.6514 O.2       6 UNK        -0.5003 
     45 CA         27.5815  -46.5453  -53.5139 C.3       5 UNK         0.0782 
     46 C46        26.9242  -45.4088  -52.6895 C.3       11 UNK        -0.0868 
     47 S47        28.0438  -44.6463  -51.4621 S.3       11 UNK        -0.2515 
     48 C48        28.4680  -43.0588  -52.2448 C.3       11 UNK         0.0199 
     49 N          28.2656  -47.5293  -52.6610 N.am      5 UNK        -0.4607 
     50 C          28.9208  -48.6112  -53.0970 C.2       4 UNK         0.5031 
     51 O          28.8731  -49.0184  -54.2584 O.2       4 UNK        -0.5119 
     52 CA         29.7464  -49.3926  -52.0612 C.3       4 UNK         0.0263 
     53 CB         28.8633  -50.4332  -51.3537 C.3       4 UNK        -0.1967 
     54 N          30.8799  -50.0751  -52.6943 N.am      4 UNK        -0.4237 
     55 C          31.8886  -49.4471  -53.3138 C.2       3 UNK         0.4908 
     56 O          32.0615  -48.2242  -53.2821 O.2       3 UNK        -0.5102 
     57 CA         32.8495  -50.3283  -54.1237 C.3       3 UNK         0.0241 
     58 CB         32.1245  -51.0525  -55.2783 C.3       3 UNK        -0.1971 
     59 N          33.9003  -49.4641  -54.6489 N.am      3 UNK        -0.4139 
     60 C          35.1016  -49.8378  -55.0976 C.2       2 UNK         0.5016 
     61 O          35.4699  -51.0100  -55.1856 O.2       2 UNK        -0.5319 
     62 CA         36.0649  -48.7093  -55.5146 C.3       2 UNK         0.0286 
     63 CB         36.0090  -48.4936  -57.0364 C.3       2 UNK        -0.1963 
     64 N          35.8231  -47.4267  -54.8373 N.am      2 UNK        -0.4790 
     65 C          36.0086  -47.2151  -53.5258 C.2       1 UNK         0.5024 
     66 O          36.3558  -48.0991  -52.7372 O.2       1 UNK        -0.4888 
     67 H67        39.4515  -45.7862  -50.4869 H         1 UNK         0.0892 
     68 H68        38.0040  -45.0836  -49.7611 H         1 UNK         0.0892 
     69 H69        39.1436  -44.0525  -50.6294 H         1 UNK         0.0892 
     70 H70        36.1588  -45.5075  -50.9597 H         1 UNK         0.3107 
     71 H71        36.0118  -45.0853  -53.8053 H         1 UNK         0.0773 
     72 H72        33.9062  -46.3400  -51.9654 H         1 UNK         0.0680 
     73 H73        33.6289  -45.7103  -53.5671 H         1 UNK         0.0680 
     74 H74        33.5259  -41.9073  -53.1471 H         1 UNK         0.0650 
     75 H75        34.0901  -43.1694  -54.2133 H         1 UNK         0.0650 
     76 H76        31.1529  -42.8133  -51.8483 H         1 UNK         0.1397 
     77 H77        28.2611  -43.6301  -54.9041 H         1 UNK         0.1363 
     78 H78        32.4381  -43.5963  -55.8657 H         1 UNK         0.1355 
     79 H79        29.3278  -44.8655  -56.9799 H         1 UNK         0.0707 
     80 H80        30.8605  -44.2493  -57.5494 H         1 UNK         0.0707 
     81 H81        28.4370  -44.4100  -59.2016 H         1 UNK         0.1034 
     82 H82        27.6536  -42.9495  -59.6876 H         1 UNK         0.1034 
     83 H83        26.9011  -43.8810  -56.9164 H         1 UNK         0.0482 
     84 H84        24.9152  -41.0323  -58.2655 H         1 UNK         0.3460 
     85 H85        26.6308  -41.3242  -58.1095 H         1 UNK         0.3460 
     86 H86        26.3993  -45.9280  -57.3041 H         1 UNK         0.2989 
     87 H87        24.9248  -47.6710  -58.5891 H         1 UNK         0.0559 
     88 H88        26.3824  -47.9800  -61.2700 H         1 UNK         0.0848 
     89 H89        24.6548  -47.7507  -61.0475 H         1 UNK         0.0848 
     90 H90        25.4180  -49.2277  -60.4811 H         1 UNK         0.0848 
     91 H91        26.6952  -48.5999  -57.6548 H         1 UNK         0.3144 
     92 H92        29.9138  -49.3778  -58.5069 H         1 UNK         0.0727 
     93 H93        30.8198  -48.1977  -56.5156 H         1 UNK         0.0790 
     94 H94        29.4071  -47.1538  -56.4549 H         1 UNK         0.0790 
     95 H95        30.5354  -47.0395  -57.8032 H         1 UNK         0.0790 
     96 H96        28.5761  -49.3628  -55.9592 H         1 UNK         0.3215 
     97 H97        26.5257  -52.2208  -56.5101 H         1 UNK         0.0863 
     98 H98        28.7377  -53.0647  -55.7147 H         1 UNK         0.0808 
     99 H99        27.6237  -52.8498  -54.3742 H         1 UNK         0.0808 
    100 H100       28.9073  -51.6747  -54.6538 H         1 UNK         0.0808 
    101 H101       26.8984  -50.2549  -54.3967 H         1 UNK         0.3118 
    102 H102       24.2025  -48.1585  -55.3541 H         1 UNK         0.0546 
    103 H103       23.0024  -50.0868  -54.3270 H         1 UNK         0.0828 
    104 H104       23.2685  -48.8111  -53.1516 H         1 UNK         0.0828 
    105 H105       24.2714  -50.2620  -53.1233 H         1 UNK         0.0828 
    106 H106       25.8765  -48.3767  -53.0028 H         1 UNK         0.3005 
    107 H107       28.3588  -46.1049  -54.1408 H         1 UNK         0.1257 
    108 H108       26.0632  -45.7921  -52.1380 H         1 UNK         0.0775 
    109 H109       26.5302  -44.6357  -53.3517 H         1 UNK         0.0775 
    110 H110       27.5848  -42.6148  -52.7066 H         1 UNK         0.0840 
    111 H111       28.7782  -42.3606  -51.4657 H         1 UNK         0.0840 
    112 H112       28.3495  -47.2676  -51.6889 H         1 UNK         0.2987 
    113 H113       30.1392  -48.6912  -51.3220 H         1 UNK         0.0785 
    114 H114       28.0239  -49.9560  -50.8462 H         1 UNK         0.0798 
    115 H115       29.4254  -50.9816  -50.5974 H         1 UNK         0.0798 
    116 H116       28.4498  -51.1585  -52.0558 H         1 UNK         0.0798 
    117 H117       30.8083  -51.0778  -52.7815 H         1 UNK         0.3079 
    118 H118       33.2973  -51.0597  -53.4477 H         1 UNK         0.0794 
    119 H119       31.6117  -50.3510  -55.9370 H         1 UNK         0.0786 
    120 H120       31.3773  -51.7514  -54.9020 H         1 UNK         0.0786 
    121 H121       32.8192  -51.6316  -55.8868 H         1 UNK         0.0786 
    122 H122       33.6935  -48.4770  -54.5515 H         1 UNK         0.3032 
    123 H123       37.0734  -49.0396  -55.2531 H         1 UNK         0.1094 
    124 H124       36.7539  -47.7676  -57.3634 H         1 UNK         0.0794 
    125 H125       36.2117  -49.4237  -57.5700 H         1 UNK         0.0794 
    126 H126       35.0284  -48.1406  -57.3592 H         1 UNK         0.0794 
    127 H127       35.5343  -46.6546  -55.4221 H         1 UNK         0.3016 
@<TRIPOS>BOND
     1    1    2 1    
     2    1   67 1    
     3    1   68 1    
     4    1   69 1    
     5    2    3 2    
     6    2    4 am   BACKBONE|DICT|INTERRES
     7    4    5 1    
     8    4   70 1    
     9    5    6 1    
    10    5   65 1    
    11    5   71 1    
    12    6    7 1    
    13    6   72 1    
    14    6   73 1    
    15    7    8 1    
    16    8    9 1    
    17    8   74 1    
    18    8   75 1    
    19    9   10 ar   
    20    9   14 ar   
    21   10   11 ar   
    22   10   76 1    
    23   11   12 ar   
    24   11   48 1    
    25   12   13 ar   
    26   12   77 1    
    27   13   14 ar   
    28   13   15 1    
    29   14   78 1    
    30   15   16 1    
    31   15   79 1    
    32   15   80 1    
    33   16   17 1    
    34   17   18 1    
    35   17   81 1    
    36   17   82 1    
    37   18   19 1    
    38   18   22 1    
    39   18   83 1    
    40   19   20 am   BACKBONE|DICT|INTERRES
    41   19   21 2    
    42   20   84 1    
    43   20   85 1    
    44   22   23 am   BACKBONE|DICT|INTERRES
    45   22   86 1    
    46   23   24 2    
    47   23   25 1    
    48   25   26 1    
    49   25   27 1    
    50   25   87 1    
    51   26   88 1    
    52   26   89 1    
    53   26   90 1    
    54   27   28 am   BACKBONE|DICT|INTERRES
    55   27   91 1    
    56   28   29 2    
    57   28   30 1    
    58   30   31 1    
    59   30   32 1    
    60   30   92 1    
    61   31   93 1    
    62   31   94 1    
    63   31   95 1    
    64   32   33 am   BACKBONE|DICT|INTERRES
    65   32   96 1    
    66   33   34 2    
    67   33   35 1    
    68   35   36 1    
    69   35   37 1    
    70   35   97 1    
    71   36   98 1    
    72   36   99 1    
    73   36  100 1    
    74   37   38 am   BACKBONE|DICT|INTERRES
    75   37  101 1    
    76   38   39 2    
    77   38   40 1    
    78   40   41 1    
    79   40   42 1    
    80   40  102 1    
    81   41  103 1    
    82   41  104 1    
    83   41  105 1    
    84   42   43 am   BACKBONE|DICT|INTERRES
    85   42  106 1    
    86   43   44 2    
    87   43   45 1    
    88   45   46 1    
    89   45   49 1    
    90   45  107 1    
    91   46   47 1    
    92   46  108 1    
    93   46  109 1    
    94   47   48 1    
    95   48  110 1    
    96   48  111 1    
    97   49   50 am   BACKBONE|DICT|INTERRES
    98   49  112 1    
    99   50   51 2    
   100   50   52 1    
   101   52   53 1    
   102   52   54 1    
   103   52  113 1    
   104   53  114 1    
   105   53  115 1    
   106   53  116 1    
   107   54   55 am   BACKBONE|DICT|INTERRES
   108   54  117 1    
   109   55   56 2    
   110   55   57 1    
   111   57   58 1    
   112   57   59 1    
   113   57  118 1    
   114   58  119 1    
   115   58  120 1    
   116   58  121 1    
   117   59   60 am   BACKBONE|DICT|INTERRES
   118   59  122 1    
   119   60   61 2    
   120   60   62 1    
   121   62   63 1    
   122   62   64 1    
   123   62  123 1    
   124   63  124 1    
   125   63  125 1    
   126   63  126 1    
   127   64   65 am   BACKBONE|DICT|INTERRES
   128   64  127 1    
   129   65   66 2    
@<TRIPOS>SUBSTRUCTURE
     1 UNK         1 GROUP             0       ****    0 ROOT    
