@<TRIPOS>MOLECULE
3R134
127   129    1
SMALL
USER_CHARGES


@<TRIPOS>ATOM
      1 CA         31.2706  -45.2726  -47.0903 C.3       0 UNK        -0.1968 
      2 C          32.4156  -45.4861  -48.0698 C.2       0 UNK         0.4852 
      3 O          33.5790  -45.4633  -47.6641 O.2       0 UNK        -0.5359 
      4 N          32.0952  -45.6841  -49.3549 N.am      1 UNK        -0.4300 
      5 CA         33.0538  -45.9504  -50.4324 C.3       1 UNK         0.0863 
      6 C6         32.4045  -45.8113  -51.8322 C.3       11 UNK        -0.0953 
      7 S7         31.7108  -44.1448  -52.0999 S.3       11 UNK        -0.2369 
      8 C8         32.7640  -43.4848  -53.4316 C.3       11 UNK         0.0226 
      9 C9         32.2201  -43.8021  -54.8197 C.ar      11 UNK        -0.0699 
     10 C10        32.9673  -44.5615  -55.7256 C.ar      11 UNK        -0.0804 
     11 C11        32.4992  -44.7810  -57.0269 C.ar      11 UNK        -0.0871 
     12 C12        31.2578  -44.2630  -57.4104 C.ar      11 UNK        -0.1008 
     13 C13        30.5066  -43.4932  -56.5168 C.ar      11 UNK        -0.0735 
     14 C14        30.9943  -43.2666  -55.2263 C.ar      11 UNK        -0.0945 
     15 C15        29.2024  -42.8443  -56.9570 C.3       11 UNK         0.0169 
     16 S16        27.7719  -43.5488  -56.0861 S.3       11 UNK        -0.2669 
     17 C17        26.4535  -42.3748  -56.5612 C.3       11 UNK        -0.0850 
     18 CA         25.4195  -42.9517  -57.5651 C.3       10 UNK         0.0855 
     19 C          25.9414  -42.9929  -59.0326 C.2       10 UNK         0.5543 
     20 N          25.7103  -44.0562  -59.7938 N.am      10 UNK        -0.7343 
     21 O          26.5515  -42.0336  -59.4981 O.2       10 UNK        -0.5027 
     22 N          24.8762  -44.2282  -57.0818 N.am      10 UNK        -0.4495 
     23 C          23.6160  -44.6487  -57.2181 C.2       10 UNK         0.4903 
     24 O          22.7121  -43.9805  -57.7225 O.2       10 UNK        -0.4860 
     25 CA         23.3542  -46.0791  -56.7171 C.3       9 UNK         0.0227 
     26 CB         21.8914  -46.5353  -56.9068 C.3       9 UNK        -0.1964 
     27 N          24.2938  -47.0410  -57.3089 N.am      9 UNK        -0.4231 
     28 C          24.4238  -47.3626  -58.6078 C.2       9 UNK         0.5014 
     29 O          23.7572  -46.8461  -59.5053 O.2       9 UNK        -0.5270 
     30 CA         25.4865  -48.4137  -58.9982 C.3       8 UNK         0.0284 
     31 CB         26.4899  -47.8199  -60.0022 C.3       8 UNK        -0.1977 
     32 N          26.2279  -48.9683  -57.8624 N.am      8 UNK        -0.4342 
     33 C          25.7294  -49.8122  -56.9457 C.2       8 UNK         0.5039 
     34 O          24.6050  -50.3076  -57.0243 O.2       8 UNK        -0.5547 
     35 CA         26.5987  -50.1283  -55.7116 C.3       7 UNK         0.0281 
     36 CB         27.0545  -51.5961  -55.7372 C.3       7 UNK        -0.1963 
     37 N          27.7665  -49.2503  -55.5610 N.am      7 UNK        -0.4444 
     38 C          27.7099  -47.9311  -55.3091 C.2       7 UNK         0.5104 
     39 O          26.6518  -47.3259  -55.1272 O.2       7 UNK        -0.5100 
     40 CA         29.0333  -47.1384  -55.3264 C.3       6 UNK         0.0396 
     41 CB         29.4972  -46.8092  -53.9039 C.3       6 UNK        -0.1801 
     42 N          30.1228  -47.7985  -56.0498 N.am      6 UNK        -0.4747 
     43 C          30.1081  -48.0655  -57.3636 C.2       6 UNK         0.5012 
     44 O          29.1852  -47.7348  -58.1088 O.2       6 UNK        -0.5003 
     45 CA         31.2652  -48.9102  -57.9369 C.3       5 UNK         0.0782 
     46 C46        32.2786  -48.0420  -58.7257 C.3       11 UNK        -0.0868 
     47 S47        33.5652  -47.2664  -57.6853 S.3       11 UNK        -0.2515 
     48 C48        33.3821  -45.4941  -58.0412 C.3       11 UNK         0.0199 
     49 N          31.9268  -49.7849  -56.9569 N.am      5 UNK        -0.4607 
     50 C          31.3365  -50.7269  -56.2102 C.2       4 UNK         0.5031 
     51 O          30.1315  -50.9676  -56.2585 O.2       4 UNK        -0.5119 
     52 CA         32.2177  -51.5329  -55.2389 C.3       4 UNK         0.0263 
     53 CB         32.3986  -52.9703  -55.7538 C.3       4 UNK        -0.1967 
     54 N          33.5387  -50.9489  -54.9785 N.am      4 UNK        -0.4237 
     55 C          33.7613  -49.8387  -54.2629 C.2       3 UNK         0.4908 
     56 O          32.8676  -49.1211  -53.8071 O.2       3 UNK        -0.5102 
     57 CA         35.2348  -49.4550  -54.0557 C.3       3 UNK         0.0241 
     58 CB         35.6990  -48.4572  -55.1266 C.3       3 UNK        -0.1971 
     59 N          35.4320  -48.8555  -52.7389 N.am      3 UNK        -0.4139 
     60 C          35.6123  -49.5427  -51.6039 C.2       2 UNK         0.5016 
     61 O          35.6943  -50.7707  -51.5482 O.2       2 UNK        -0.5319 
     62 CA         35.7318  -48.7179  -50.3103 C.3       2 UNK         0.0286 
     63 CB         37.2079  -48.4330  -49.9876 C.3       2 UNK        -0.1963 
     64 N          34.9970  -47.4498  -50.3772 N.am      2 UNK        -0.4790 
     65 C          33.6654  -47.3545  -50.2636 C.2       1 UNK         0.5024 
     66 O          32.9260  -48.3186  -50.0512 O.2       1 UNK        -0.4888 
     67 H67        31.2846  -46.0461  -46.3229 H         1 UNK         0.0892 
     68 H68        31.3712  -44.3043  -46.6008 H         1 UNK         0.0892 
     69 H69        30.2997  -45.3029  -47.5846 H         1 UNK         0.0892 
     70 H70        31.1236  -45.7000  -49.6289 H         1 UNK         0.3107 
     71 H71        33.8539  -45.2108  -50.3538 H         1 UNK         0.0773 
     72 H72        31.5991  -46.5383  -51.9455 H         1 UNK         0.0680 
     73 H73        33.1244  -46.0369  -52.6213 H         1 UNK         0.0680 
     74 H74        32.8144  -42.4007  -53.3217 H         1 UNK         0.0650 
     75 H75        33.7861  -43.8470  -53.3114 H         1 UNK         0.0650 
     76 H76        33.9320  -44.9533  -55.4333 H         1 UNK         0.1397 
     77 H77        30.8959  -44.4221  -58.4171 H         1 UNK         0.1363 
     78 H78        30.4219  -42.6591  -54.5385 H         1 UNK         0.1355 
     79 H79        29.2603  -41.7732  -56.7580 H         1 UNK         0.0707 
     80 H80        29.0544  -42.9536  -58.0326 H         1 UNK         0.0707 
     81 H81        25.9325  -42.0939  -55.6447 H         1 UNK         0.1034 
     82 H82        26.8855  -41.4441  -56.9335 H         1 UNK         0.1034 
     83 H83        24.5983  -42.2332  -57.5953 H         1 UNK         0.0482 
     84 H84        25.1553  -44.8242  -59.4484 H         1 UNK         0.3460 
     85 H85        26.0466  -44.0622  -60.7434 H         1 UNK         0.3460 
     86 H86        25.5560  -44.8502  -56.6662 H         1 UNK         0.2989 
     87 H87        23.5579  -46.0731  -55.6451 H         1 UNK         0.0559 
     88 H88        21.5932  -46.5283  -57.9556 H         1 UNK         0.0848 
     89 H89        21.2065  -45.8758  -56.3724 H         1 UNK         0.0848 
     90 H90        21.7375  -47.5432  -56.5216 H         1 UNK         0.0848 
     91 H91        24.9322  -47.4777  -56.6551 H         1 UNK         0.3144 
     92 H92        24.9590  -49.2338  -59.4895 H         1 UNK         0.0727 
     93 H93        25.9867  -47.4824  -60.9092 H         1 UNK         0.0790 
     94 H94        27.2359  -48.5556  -60.3034 H         1 UNK         0.0790 
     95 H95        27.0166  -46.9608  -59.5842 H         1 UNK         0.0790 
     96 H96        27.1701  -48.6170  -57.7327 H         1 UNK         0.3215 
     97 H97        25.9674  -49.9859  -54.8319 H         1 UNK         0.0863 
     98 H98        27.6605  -51.8423  -54.8651 H         1 UNK         0.0808 
     99 H99        27.6409  -51.8199  -56.6291 H         1 UNK         0.0808 
    100 H100       26.1971  -52.2705  -55.7367 H         1 UNK         0.0808 
    101 H101       28.6726  -49.6791  -55.7283 H         1 UNK         0.3118 
    102 H102       28.8342  -46.1979  -55.8403 H         1 UNK         0.0546 
    103 H103       30.3547  -46.1380  -53.9316 H         1 UNK         0.0828 
    104 H104       29.7808  -47.7051  -53.3504 H         1 UNK         0.0828 
    105 H105       28.7117  -46.3039  -53.3404 H         1 UNK         0.0828 
    106 H106       30.9173  -48.1084  -55.5060 H         1 UNK         0.3005 
    107 H107       30.7888  -49.5785  -58.6580 H         1 UNK         0.1257 
    108 H108       32.7991  -48.6757  -59.4454 H         1 UNK         0.0775 
    109 H109       31.7671  -47.2889  -59.3285 H         1 UNK         0.0775 
    110 H110       34.3733  -45.0388  -58.0168 H         1 UNK         0.0840 
    111 H111       33.0173  -45.3470  -59.0588 H         1 UNK         0.0840 
    112 H112       32.9165  -49.6271  -56.8362 H         1 UNK         0.2987 
    113 H113       31.6801  -51.5780  -54.2892 H         1 UNK         0.0785 
    114 H114       32.9444  -52.9959  -56.6978 H         1 UNK         0.0798 
    115 H115       31.4331  -53.4497  -55.9233 H         1 UNK         0.0798 
    116 H116       32.9394  -53.5856  -55.0344 H         1 UNK         0.0798 
    117 H117       34.3324  -51.4637  -55.3334 H         1 UNK         0.3079 
    118 H118       35.8520  -50.3532  -54.1315 H         1 UNK         0.0794 
    119 H119       35.1109  -47.5387  -55.1038 H         1 UNK         0.0786 
    120 H120       35.6063  -48.8846  -56.1256 H         1 UNK         0.0786 
    121 H121       36.7462  -48.1868  -54.9898 H         1 UNK         0.0786 
    122 H122       35.3281  -47.8544  -52.6771 H         1 UNK         0.3032 
    123 H123       35.3164  -49.3211  -49.4992 H         1 UNK         0.1094 
    124 H124       37.3123  -47.9094  -49.0370 H         1 UNK         0.0794 
    125 H125       37.7750  -49.3617  -49.9074 H         1 UNK         0.0794 
    126 H126       37.6831  -47.8273  -50.7602 H         1 UNK         0.0794 
    127 H127       35.5426  -46.6113  -50.5210 H         1 UNK         0.3016 
@<TRIPOS>BOND
     1    1    2 1    
     2    1   67 1    
     3    1   68 1    
     4    1   69 1    
     5    2    3 2    
     6    2    4 am   BACKBONE|DICT|INTERRES
     7    4    5 1    
     8    4   70 1    
     9    5    6 1    
    10    5   65 1    
    11    5   71 1    
    12    6    7 1    
    13    6   72 1    
    14    6   73 1    
    15    7    8 1    
    16    8    9 1    
    17    8   74 1    
    18    8   75 1    
    19    9   10 ar   
    20    9   14 ar   
    21   10   11 ar   
    22   10   76 1    
    23   11   12 ar   
    24   11   48 1    
    25   12   13 ar   
    26   12   77 1    
    27   13   14 ar   
    28   13   15 1    
    29   14   78 1    
    30   15   16 1    
    31   15   79 1    
    32   15   80 1    
    33   16   17 1    
    34   17   18 1    
    35   17   81 1    
    36   17   82 1    
    37   18   19 1    
    38   18   22 1    
    39   18   83 1    
    40   19   20 am   BACKBONE|DICT|INTERRES
    41   19   21 2    
    42   20   84 1    
    43   20   85 1    
    44   22   23 am   BACKBONE|DICT|INTERRES
    45   22   86 1    
    46   23   24 2    
    47   23   25 1    
    48   25   26 1    
    49   25   27 1    
    50   25   87 1    
    51   26   88 1    
    52   26   89 1    
    53   26   90 1    
    54   27   28 am   BACKBONE|DICT|INTERRES
    55   27   91 1    
    56   28   29 2    
    57   28   30 1    
    58   30   31 1    
    59   30   32 1    
    60   30   92 1    
    61   31   93 1    
    62   31   94 1    
    63   31   95 1    
    64   32   33 am   BACKBONE|DICT|INTERRES
    65   32   96 1    
    66   33   34 2    
    67   33   35 1    
    68   35   36 1    
    69   35   37 1    
    70   35   97 1    
    71   36   98 1    
    72   36   99 1    
    73   36  100 1    
    74   37   38 am   BACKBONE|DICT|INTERRES
    75   37  101 1    
    76   38   39 2    
    77   38   40 1    
    78   40   41 1    
    79   40   42 1    
    80   40  102 1    
    81   41  103 1    
    82   41  104 1    
    83   41  105 1    
    84   42   43 am   BACKBONE|DICT|INTERRES
    85   42  106 1    
    86   43   44 2    
    87   43   45 1    
    88   45   46 1    
    89   45   49 1    
    90   45  107 1    
    91   46   47 1    
    92   46  108 1    
    93   46  109 1    
    94   47   48 1    
    95   48  110 1    
    96   48  111 1    
    97   49   50 am   BACKBONE|DICT|INTERRES
    98   49  112 1    
    99   50   51 2    
   100   50   52 1    
   101   52   53 1    
   102   52   54 1    
   103   52  113 1    
   104   53  114 1    
   105   53  115 1    
   106   53  116 1    
   107   54   55 am   BACKBONE|DICT|INTERRES
   108   54  117 1    
   109   55   56 2    
   110   55   57 1    
   111   57   58 1    
   112   57   59 1    
   113   57  118 1    
   114   58  119 1    
   115   58  120 1    
   116   58  121 1    
   117   59   60 am   BACKBONE|DICT|INTERRES
   118   59  122 1    
   119   60   61 2    
   120   60   62 1    
   121   62   63 1    
   122   62   64 1    
   123   62  123 1    
   124   63  124 1    
   125   63  125 1    
   126   63  126 1    
   127   64   65 am   BACKBONE|DICT|INTERRES
   128   64  127 1    
   129   65   66 2    
@<TRIPOS>SUBSTRUCTURE
     1 UNK         1 GROUP             0       ****    0 ROOT    
