@<TRIPOS>MOLECULE
3R134
127   129    1
SMALL
USER_CHARGES


@<TRIPOS>ATOM
      1 CA         37.2532  -44.6682  -49.9776 C.3       0 UNK        -0.1968 
      2 C          36.6970  -45.3305  -51.2294 C.2       0 UNK         0.4852 
      3 O          37.2676  -46.3139  -51.7035 O.2       0 UNK        -0.5359 
      4 N          35.5919  -44.7957  -51.7672 N.am      1 UNK        -0.4300 
      5 CA         34.9033  -45.3014  -52.9623 C.3       1 UNK         0.0863 
      6 C6         33.8507  -44.2986  -53.4798 C.3       11 UNK        -0.0953 
      7 S7         34.5830  -42.7243  -54.0537 S.3       11 UNK        -0.2369 
      8 C8         33.1250  -41.6270  -54.1653 C.3       11 UNK         0.0226 
      9 C9         31.9233  -42.3506  -54.7526 C.ar      11 UNK        -0.0699 
     10 C10        30.9068  -42.8046  -53.9087 C.ar      11 UNK        -0.0804 
     11 C11        29.8925  -43.6280  -54.4005 C.ar      11 UNK        -0.0871 
     12 C12        29.8781  -43.9616  -55.7576 C.ar      11 UNK        -0.1008 
     13 C13        30.8534  -43.4581  -56.6264 C.ar      11 UNK        -0.0735 
     14 C14        31.8768  -42.6546  -56.1157 C.ar      11 UNK        -0.0945 
     15 C15        30.8619  -43.8582  -58.0954 C.3       11 UNK         0.0169 
     16 S16        30.6482  -42.4538  -59.2463 S.3       11 UNK        -0.2669 
     17 C17        28.9004  -41.8900  -59.1883 C.3       11 UNK        -0.0850 
     18 CA         27.8466  -42.7819  -58.4823 C.3       10 UNK         0.0855 
     19 C          26.4632  -42.0773  -58.4479 C.2       10 UNK         0.5543 
     20 N          26.1949  -41.2866  -57.4179 N.am      10 UNK        -0.7343 
     21 O          25.6535  -42.2050  -59.3647 O.2       10 UNK        -0.5027 
     22 N          27.7588  -44.1179  -59.0874 N.am      10 UNK        -0.4495 
     23 C          27.2868  -45.1939  -58.4487 C.2       10 UNK         0.4903 
     24 O          26.8779  -45.1678  -57.2843 O.2       10 UNK        -0.4860 
     25 CA         27.3191  -46.5194  -59.2322 C.3       9 UNK         0.0227 
     26 CB         28.7513  -46.8949  -59.6578 C.3       9 UNK        -0.1964 
     27 N          26.7787  -47.5979  -58.4059 N.am      9 UNK        -0.4231 
     28 C          25.4811  -47.9240  -58.3386 C.2       9 UNK         0.5014 
     29 O          24.6222  -47.4630  -59.0941 O.2       9 UNK        -0.5270 
     30 CA         25.0678  -48.8994  -57.2193 C.3       8 UNK         0.0284 
     31 CB         23.7131  -49.5923  -57.4834 C.3       8 UNK        -0.1977 
     32 N          26.1073  -49.8766  -56.8786 N.am      8 UNK        -0.4342 
     33 C          26.6018  -50.8542  -57.6542 C.2       8 UNK         0.5039 
     34 O          26.2216  -51.0718  -58.8055 O.2       8 UNK        -0.5547 
     35 CA         27.7173  -51.7432  -57.0653 C.3       7 UNK         0.0281 
     36 CB         29.0178  -51.5757  -57.8700 C.3       7 UNK        -0.1963 
     37 N          28.0027  -51.4854  -55.6508 N.am      7 UNK        -0.4444 
     38 C          27.2196  -51.8323  -54.6201 C.2       7 UNK         0.5104 
     39 O          26.1887  -52.4950  -54.7342 O.2       7 UNK        -0.5100 
     40 CA         27.6286  -51.2966  -53.2352 C.3       6 UNK         0.0396 
     41 CB         28.6159  -52.2547  -52.5515 C.3       6 UNK        -0.1801 
     42 N          28.2041  -49.9469  -53.2930 N.am      6 UNK        -0.4747 
     43 C          27.5404  -48.8461  -53.6836 C.2       6 UNK         0.5012 
     44 O          26.3532  -48.8444  -54.0072 O.2       6 UNK        -0.5003 
     45 CA         28.3549  -47.5445  -53.7876 C.3       5 UNK         0.0782 
     46 C46        28.4193  -46.8195  -52.4181 C.3       11 UNK        -0.0868 
     47 S47        29.6127  -45.4403  -52.3565 S.3       11 UNK        -0.2515 
     48 C48        28.8519  -44.1955  -53.4474 C.3       11 UNK         0.0199 
     49 N          29.6731  -47.8129  -54.3618 N.am      5 UNK        -0.4607 
     50 C          29.8869  -48.0724  -55.6578 C.2       4 UNK         0.5031 
     51 O          28.9917  -48.1048  -56.5033 O.2       4 UNK        -0.5119 
     52 CA         31.3362  -48.3869  -56.0697 C.3       4 UNK         0.0263 
     53 CB         32.0926  -47.0880  -56.3832 C.3       4 UNK        -0.1967 
     54 N          32.0665  -49.1482  -55.0502 N.am      4 UNK        -0.4237 
     55 C          31.7141  -50.3763  -54.6394 C.2       3 UNK         0.4908 
     56 O          30.7855  -51.0151  -55.1321 O.2       3 UNK        -0.5102 
     57 CA         32.4807  -50.9920  -53.4568 C.3       3 UNK         0.0241 
     58 CB         33.5766  -51.9405  -53.9670 C.3       3 UNK        -0.1971 
     59 N          33.0728  -50.0213  -52.5339 N.am      3 UNK        -0.4139 
     60 C          32.4231  -49.0554  -51.8677 C.2       2 UNK         0.5016 
     61 O          31.2150  -48.8383  -51.9760 O.2       2 UNK        -0.5319 
     62 CA         33.2751  -48.1788  -50.9285 C.3       2 UNK         0.0286 
     63 CB         34.4821  -48.9336  -50.3294 C.3       2 UNK        -0.1963 
     64 N          33.7430  -46.9151  -51.5164 N.am      2 UNK        -0.4790 
     65 C          34.2642  -46.6899  -52.7355 C.2       1 UNK         0.5024 
     66 O          34.2861  -47.5147  -53.6512 O.2       1 UNK        -0.4888 
     67 H67        38.2739  -44.3299  -50.1542 H         1 UNK         0.0892 
     68 H68        36.6591  -43.8069  -49.6724 H         1 UNK         0.0892 
     69 H69        37.2676  -45.3795  -49.1522 H         1 UNK         0.0892 
     70 H70        35.1892  -43.9684  -51.3506 H         1 UNK         0.3107 
     71 H71        35.6568  -45.4299  -53.7427 H         1 UNK         0.0773 
     72 H72        33.1138  -44.0903  -52.7020 H         1 UNK         0.0680 
     73 H73        33.3026  -44.7276  -54.3205 H         1 UNK         0.0680 
     74 H74        32.8939  -41.2440  -53.1701 H         1 UNK         0.0650 
     75 H75        33.3731  -40.7606  -54.7798 H         1 UNK         0.0650 
     76 H76        30.9428  -42.5796  -52.8514 H         1 UNK         0.1397 
     77 H77        29.1152  -44.6283  -56.1326 H         1 UNK         0.1363 
     78 H78        32.6661  -42.3101  -56.7700 H         1 UNK         0.1355 
     79 H79        31.8330  -44.3064  -58.3099 H         1 UNK         0.0707 
     80 H80        30.1410  -44.6452  -58.2973 H         1 UNK         0.0707 
     81 H81        28.5897  -41.7018  -60.2178 H         1 UNK         0.1034 
     82 H82        28.9167  -40.9078  -58.7115 H         1 UNK         0.1034 
     83 H83        28.1601  -42.8960  -57.4467 H         1 UNK         0.0482 
     84 H84        26.8552  -41.1669  -56.6655 H         1 UNK         0.3460 
     85 H85        25.3085  -40.8074  -57.3861 H         1 UNK         0.3460 
     86 H86        28.0457  -44.1933  -60.0519 H         1 UNK         0.2989 
     87 H87        26.7116  -46.3997  -60.1315 H         1 UNK         0.0559 
     88 H88        29.4306  -46.9407  -58.8068 H         1 UNK         0.0848 
     89 H89        29.1615  -46.1711  -60.3627 H         1 UNK         0.0848 
     90 H90        28.7737  -47.8669  -60.1508 H         1 UNK         0.0848 
     91 H91        27.4130  -47.9666  -57.7021 H         1 UNK         0.3144 
     92 H92        24.9434  -48.2814  -56.3290 H         1 UNK         0.0727 
     93 H93        23.7275  -50.1738  -58.4056 H         1 UNK         0.0790 
     94 H94        22.9105  -48.8595  -57.5755 H         1 UNK         0.0790 
     95 H95        23.4451  -50.2628  -56.6668 H         1 UNK         0.0790 
     96 H96        26.4897  -49.7776  -55.9456 H         1 UNK         0.3215 
     97 H97        27.3862  -52.7794  -57.1615 H         1 UNK         0.0863 
     98 H98        29.3932  -50.5533  -57.8175 H         1 UNK         0.0808 
     99 H99        28.8624  -51.8123  -58.9234 H         1 UNK         0.0808 
    100 H100       29.8009  -52.2392  -57.5025 H         1 UNK         0.0808 
    101 H101       28.8867  -51.0255  -55.4465 H         1 UNK         0.3118 
    102 H102       26.7278  -51.2431  -52.6203 H         1 UNK         0.0546 
    103 H103       28.9108  -51.8906  -51.5672 H         1 UNK         0.0828 
    104 H104       29.5191  -52.3968  -53.1444 H         1 UNK         0.0828 
    105 H105       28.1653  -53.2382  -52.4113 H         1 UNK         0.0828 
    106 H106       29.1827  -49.8518  -53.0533 H         1 UNK         0.3005 
    107 H107       27.8200  -46.8966  -54.4860 H         1 UNK         0.1257 
    108 H108       28.7118  -47.5173  -51.6307 H         1 UNK         0.0775 
    109 H109       27.4330  -46.4447  -52.1381 H         1 UNK         0.0775 
    110 H110       28.0167  -44.6220  -54.0035 H         1 UNK         0.0840 
    111 H111       28.4337  -43.3930  -52.8382 H         1 UNK         0.0840 
    112 H112       30.4432  -47.8526  -53.7041 H         1 UNK         0.2987 
    113 H113       31.3004  -48.9933  -56.9770 H         1 UNK         0.0785 
    114 H114       32.1187  -46.4195  -55.5220 H         1 UNK         0.0798 
    115 H115       33.1205  -47.2859  -56.6874 H         1 UNK         0.0798 
    116 H116       31.6101  -46.5502  -57.1989 H         1 UNK         0.0798 
    117 H117       32.8392  -48.6808  -54.5858 H         1 UNK         0.3079 
    118 H118       31.7639  -51.5794  -52.8808 H         1 UNK         0.0794 
    119 H119       34.0572  -52.4723  -53.1455 H         1 UNK         0.0786 
    120 H120       34.3491  -51.4037  -54.5194 H         1 UNK         0.0786 
    121 H121       33.1601  -52.6940  -54.6375 H         1 UNK         0.0786 
    122 H122       34.0721  -50.0814  -52.4037 H         1 UNK         0.3032 
    123 H123       32.6152  -47.9103  -50.1014 H         1 UNK         0.1094 
    124 H124       34.1819  -49.8940  -49.9073 H         1 UNK         0.0794 
    125 H125       35.2613  -49.1206  -51.0693 H         1 UNK         0.0794 
    126 H126       34.9359  -48.3600  -49.5210 H         1 UNK         0.0794 
    127 H127       33.7451  -46.1315  -50.8789 H         1 UNK         0.3016 
@<TRIPOS>BOND
     1    1    2 1    
     2    1   67 1    
     3    1   68 1    
     4    1   69 1    
     5    2    3 2    
     6    2    4 am   BACKBONE|DICT|INTERRES
     7    4    5 1    
     8    4   70 1    
     9    5    6 1    
    10    5   65 1    
    11    5   71 1    
    12    6    7 1    
    13    6   72 1    
    14    6   73 1    
    15    7    8 1    
    16    8    9 1    
    17    8   74 1    
    18    8   75 1    
    19    9   10 ar   
    20    9   14 ar   
    21   10   11 ar   
    22   10   76 1    
    23   11   12 ar   
    24   11   48 1    
    25   12   13 ar   
    26   12   77 1    
    27   13   14 ar   
    28   13   15 1    
    29   14   78 1    
    30   15   16 1    
    31   15   79 1    
    32   15   80 1    
    33   16   17 1    
    34   17   18 1    
    35   17   81 1    
    36   17   82 1    
    37   18   19 1    
    38   18   22 1    
    39   18   83 1    
    40   19   20 am   BACKBONE|DICT|INTERRES
    41   19   21 2    
    42   20   84 1    
    43   20   85 1    
    44   22   23 am   BACKBONE|DICT|INTERRES
    45   22   86 1    
    46   23   24 2    
    47   23   25 1    
    48   25   26 1    
    49   25   27 1    
    50   25   87 1    
    51   26   88 1    
    52   26   89 1    
    53   26   90 1    
    54   27   28 am   BACKBONE|DICT|INTERRES
    55   27   91 1    
    56   28   29 2    
    57   28   30 1    
    58   30   31 1    
    59   30   32 1    
    60   30   92 1    
    61   31   93 1    
    62   31   94 1    
    63   31   95 1    
    64   32   33 am   BACKBONE|DICT|INTERRES
    65   32   96 1    
    66   33   34 2    
    67   33   35 1    
    68   35   36 1    
    69   35   37 1    
    70   35   97 1    
    71   36   98 1    
    72   36   99 1    
    73   36  100 1    
    74   37   38 am   BACKBONE|DICT|INTERRES
    75   37  101 1    
    76   38   39 2    
    77   38   40 1    
    78   40   41 1    
    79   40   42 1    
    80   40  102 1    
    81   41  103 1    
    82   41  104 1    
    83   41  105 1    
    84   42   43 am   BACKBONE|DICT|INTERRES
    85   42  106 1    
    86   43   44 2    
    87   43   45 1    
    88   45   46 1    
    89   45   49 1    
    90   45  107 1    
    91   46   47 1    
    92   46  108 1    
    93   46  109 1    
    94   47   48 1    
    95   48  110 1    
    96   48  111 1    
    97   49   50 am   BACKBONE|DICT|INTERRES
    98   49  112 1    
    99   50   51 2    
   100   50   52 1    
   101   52   53 1    
   102   52   54 1    
   103   52  113 1    
   104   53  114 1    
   105   53  115 1    
   106   53  116 1    
   107   54   55 am   BACKBONE|DICT|INTERRES
   108   54  117 1    
   109   55   56 2    
   110   55   57 1    
   111   57   58 1    
   112   57   59 1    
   113   57  118 1    
   114   58  119 1    
   115   58  120 1    
   116   58  121 1    
   117   59   60 am   BACKBONE|DICT|INTERRES
   118   59  122 1    
   119   60   61 2    
   120   60   62 1    
   121   62   63 1    
   122   62   64 1    
   123   62  123 1    
   124   63  124 1    
   125   63  125 1    
   126   63  126 1    
   127   64   65 am   BACKBONE|DICT|INTERRES
   128   64  127 1    
   129   65   66 2    
@<TRIPOS>SUBSTRUCTURE
     1 UNK         1 GROUP             0       ****    0 ROOT    
