@<TRIPOS>MOLECULE
3R134
127   129    1
SMALL
USER_CHARGES


@<TRIPOS>ATOM
      1 CA         34.6746  -46.0916  -49.3608 C.3       0 UNK        -0.1968 
      2 C          34.2699  -46.4069  -50.7921 C.2       0 UNK         0.4852 
      3 O          33.5257  -47.3630  -51.0187 O.2       0 UNK        -0.5359 
      4 N          34.7344  -45.6013  -51.7594 N.am      1 UNK        -0.4300 
      5 CA         34.4790  -45.7525  -53.2005 C.3       1 UNK         0.0863 
      6 C6         35.2513  -44.6959  -54.0320 C.3       11 UNK        -0.0953 
      7 S7         34.6999  -42.9685  -53.7707 S.3       11 UNK        -0.2369 
      8 C8         34.3952  -42.3749  -55.4688 C.3       11 UNK         0.0226 
      9 C9         33.2789  -43.1340  -56.1760 C.ar      11 UNK        -0.0699 
     10 C10        33.5943  -44.1500  -57.0813 C.ar      11 UNK        -0.0804 
     11 C11        32.5860  -44.8611  -57.7319 C.ar      11 UNK        -0.0871 
     12 C12        31.2492  -44.5291  -57.4943 C.ar      11 UNK        -0.1008 
     13 C13        30.9088  -43.5083  -56.6000 C.ar      11 UNK        -0.0735 
     14 C14        31.9369  -42.8117  -55.9448 C.ar      11 UNK        -0.0945 
     15 C15        29.4224  -43.1988  -56.3964 C.3       11 UNK         0.0169 
     16 S16        29.0168  -42.2440  -54.8960 S.3       11 UNK        -0.2669 
     17 C17        27.1917  -42.2831  -54.9021 C.3       11 UNK        -0.0850 
     18 CA         26.6220  -43.3323  -53.9000 C.3       10 UNK         0.0855 
     19 C          25.1450  -43.0508  -53.4779 C.2       10 UNK         0.5543 
     20 N          24.3706  -44.0580  -53.0926 N.am      10 UNK        -0.7343 
     21 O          24.7006  -41.9052  -53.4616 O.2       10 UNK        -0.5027 
     22 N          26.8928  -44.7201  -54.3244 N.am      10 UNK        -0.4495 
     23 C          26.3330  -45.3452  -55.3687 C.2       10 UNK         0.4903 
     24 O          25.4779  -44.8430  -56.1023 O.2       10 UNK        -0.4860 
     25 CA         26.7888  -46.7964  -55.5938 C.3       9 UNK         0.0227 
     26 CB         26.1202  -47.7427  -54.5818 C.3       9 UNK        -0.1964 
     27 N          26.5123  -47.2891  -56.9439 N.am      9 UNK        -0.4231 
     28 C          27.0921  -46.8464  -58.0678 C.2       9 UNK         0.5014 
     29 O          27.8893  -45.9079  -58.1170 O.2       9 UNK        -0.5270 
     30 CA         26.7699  -47.6517  -59.3343 C.3       8 UNK         0.0284 
     31 CB         27.5317  -47.1560  -60.5807 C.3       8 UNK        -0.1977 
     32 N          27.0790  -49.0614  -59.0882 N.am      8 UNK        -0.4342 
     33 C          26.4638  -50.1003  -59.6679 C.2       8 UNK         0.5039 
     34 O          25.5363  -49.9752  -60.4693 O.2       8 UNK        -0.5547 
     35 CA         26.9582  -51.5219  -59.3289 C.3       7 UNK         0.0281 
     36 CB         27.7728  -52.0957  -60.5006 C.3       7 UNK        -0.1963 
     37 N          27.7658  -51.6020  -58.1094 N.am      7 UNK        -0.4444 
     38 C          27.2850  -51.5183  -56.8619 C.2       7 UNK         0.5104 
     39 O          26.0873  -51.4119  -56.5970 O.2       7 UNK        -0.5100 
     40 CA         28.3146  -51.5288  -55.7132 C.3       6 UNK         0.0396 
     41 CB         28.4586  -52.9444  -55.1340 C.3       6 UNK        -0.1801 
     42 N          29.6487  -51.0112  -56.0524 N.am      6 UNK        -0.4747 
     43 C          29.9108  -49.7986  -56.5606 C.2       6 UNK         0.5012 
     44 O          29.0255  -49.0301  -56.9267 O.2       6 UNK        -0.5003 
     45 CA         31.3902  -49.3702  -56.6781 C.3       5 UNK         0.0782 
     46 C46        31.5201  -47.9870  -57.3646 C.3       11 UNK        -0.0868 
     47 S47        33.2344  -47.5536  -57.7955 S.3       11 UNK        -0.2515 
     48 C48        32.9512  -45.9893  -58.6860 C.3       11 UNK         0.0199 
     49 N          32.0271  -49.3824  -55.3568 N.am      5 UNK        -0.4607 
     50 C          32.4428  -50.4825  -54.7158 C.2       4 UNK         0.5031 
     51 O          32.4091  -51.6097  -55.2119 O.2       4 UNK        -0.5119 
     52 CA         32.9258  -50.3139  -53.2665 C.3       4 UNK         0.0263 
     53 CB         34.4016  -49.8891  -53.2374 C.3       4 UNK        -0.1967 
     54 N          32.1184  -49.3660  -52.4915 N.am      4 UNK        -0.4237 
     55 C          30.8160  -49.5221  -52.2009 C.2       3 UNK         0.4908 
     56 O          30.1481  -50.4957  -52.5498 O.2       3 UNK        -0.5102 
     57 CA         30.1386  -48.4160  -51.3784 C.3       3 UNK         0.0241 
     58 CB         30.3730  -48.6428  -49.8758 C.3       3 UNK        -0.1971 
     59 N          30.6418  -47.0954  -51.7525 N.am      3 UNK        -0.4139 
     60 C          29.9884  -46.2149  -52.5228 C.2       2 UNK         0.5016 
     61 O          28.8368  -46.3706  -52.9306 O.2       2 UNK        -0.5319 
     62 CA         30.7265  -44.9176  -52.8927 C.3       2 UNK         0.0286 
     63 CB         30.2735  -43.7756  -51.9691 C.3       2 UNK        -0.1963 
     64 N          32.1838  -45.0025  -52.8271 N.am      2 UNK        -0.4790 
     65 C          32.9740  -45.8091  -53.5498 C.2       1 UNK         0.5024 
     66 O          32.5620  -46.6219  -54.3770 O.2       1 UNK        -0.4888 
     67 H67        35.3213  -45.2164  -49.3023 H         1 UNK         0.0892 
     68 H68        33.7891  -45.9017  -48.7550 H         1 UNK         0.0892 
     69 H69        35.2078  -46.9380  -48.9290 H         1 UNK         0.0892 
     70 H70        35.3242  -44.8203  -51.5082 H         1 UNK         0.3107 
     71 H71        34.8908  -46.7245  -53.4731 H         1 UNK         0.0773 
     72 H72        35.2013  -44.9550  -55.0879 H         1 UNK         0.0680 
     73 H73        36.3127  -44.7433  -53.7841 H         1 UNK         0.0680 
     74 H74        35.3232  -42.4391  -56.0392 H         1 UNK         0.0650 
     75 H75        34.1401  -41.3151  -55.4265 H         1 UNK         0.0650 
     76 H76        34.6287  -44.4007  -57.2724 H         1 UNK         0.1397 
     77 H77        30.4655  -45.0769  -58.0012 H         1 UNK         0.1363 
     78 H78        31.7062  -42.0163  -55.2509 H         1 UNK         0.1355 
     79 H79        29.0524  -42.6606  -57.2699 H         1 UNK         0.0707 
     80 H80        28.8741  -44.1399  -56.3535 H         1 UNK         0.0707 
     81 H81        26.8683  -41.2753  -54.6365 H         1 UNK         0.1034 
     82 H82        26.8155  -42.4565  -55.9114 H         1 UNK         0.1034 
     83 H83        27.1685  -43.2088  -52.9660 H         1 UNK         0.0482 
     84 H84        24.7251  -45.0005  -53.0919 H         1 UNK         0.3460 
     85 H85        23.4212  -43.8726  -52.8097 H         1 UNK         0.3460 
     86 H86        27.5656  -45.2377  -53.7622 H         1 UNK         0.2989 
     87 H87        27.8705  -46.8380  -55.4480 H         1 UNK         0.0559 
     88 H88        26.3475  -47.4483  -53.5564 H         1 UNK         0.0848 
     89 H89        26.4758  -48.7660  -54.7041 H         1 UNK         0.0848 
     90 H90        25.0347  -47.7471  -54.6882 H         1 UNK         0.0848 
     91 H91        25.8708  -48.0647  -57.0157 H         1 UNK         0.3144 
     92 H92        25.6987  -47.5379  -59.5146 H         1 UNK         0.0727 
     93 H93        28.6109  -47.2515  -60.4541 H         1 UNK         0.0790 
     94 H94        27.3157  -46.1054  -60.7786 H         1 UNK         0.0790 
     95 H95        27.2471  -47.7176  -61.4705 H         1 UNK         0.0790 
     96 H96        27.8006  -49.2275  -58.3879 H         1 UNK         0.3215 
     97 H97        26.0725  -52.1465  -59.1925 H         1 UNK         0.0863 
     98 H98        28.0653  -53.1292  -60.3136 H         1 UNK         0.0808 
     99 H99        28.6783  -51.5163  -60.6854 H         1 UNK         0.0808 
    100 H100       27.1891  -52.0890  -61.4223 H         1 UNK         0.0808 
    101 H101       28.7653  -51.6866  -58.2245 H         1 UNK         0.3118 
    102 H102       27.9191  -50.8832  -54.9266 H         1 UNK         0.0546 
    103 H103       28.8980  -53.6334  -55.8562 H         1 UNK         0.0828 
    104 H104       27.4882  -53.3496  -54.8434 H         1 UNK         0.0828 
    105 H105       29.0868  -52.9441  -54.2427 H         1 UNK         0.0828 
    106 H106       30.4439  -51.5678  -55.7549 H         1 UNK         0.3005 
    107 H107       31.8823  -50.1082  -57.3156 H         1 UNK         0.1257 
    108 H108       31.1085  -47.2091  -56.7188 H         1 UNK         0.0775 
    109 H109       30.9402  -47.9587  -58.2896 H         1 UNK         0.0775 
    110 H110       33.8574  -45.7276  -59.2345 H         1 UNK         0.0840 
    111 H111       32.1724  -46.1257  -59.4379 H         1 UNK         0.0840 
    112 H112       32.1090  -48.4798  -54.8971 H         1 UNK         0.2987 
    113 H113       32.8429  -51.2857  -52.7755 H         1 UNK         0.0785 
    114 H114       35.0313  -50.6437  -53.7105 H         1 UNK         0.0798 
    115 H115       34.7614  -49.7584  -52.2166 H         1 UNK         0.0798 
    116 H116       34.5592  -48.9547  -53.7744 H         1 UNK         0.0798 
    117 H117       32.6132  -48.5702  -52.0952 H         1 UNK         0.3079 
    118 H118       29.0641  -48.4759  -51.5654 H         1 UNK         0.0794 
    119 H119       30.0004  -49.6203  -49.5664 H         1 UNK         0.0786 
    120 H120       29.8534  -47.8937  -49.2782 H         1 UNK         0.0786 
    121 H121       31.4323  -48.6000  -49.6184 H         1 UNK         0.0786 
    122 H122       31.5958  -46.8844  -51.4803 H         1 UNK         0.3032 
    123 H123       30.4553  -44.6778  -53.9223 H         1 UNK         0.1094 
    124 H124       30.6872  -42.8193  -52.2898 H         1 UNK         0.0794 
    125 H125       29.1889  -43.6737  -51.9720 H         1 UNK         0.0794 
    126 H126       30.5783  -43.9461  -50.9359 H         1 UNK         0.0794 
    127 H127       32.6388  -44.3788  -52.1762 H         1 UNK         0.3016 
@<TRIPOS>BOND
     1    1    2 1    
     2    1   67 1    
     3    1   68 1    
     4    1   69 1    
     5    2    3 2    
     6    2    4 am   BACKBONE|DICT|INTERRES
     7    4    5 1    
     8    4   70 1    
     9    5    6 1    
    10    5   65 1    
    11    5   71 1    
    12    6    7 1    
    13    6   72 1    
    14    6   73 1    
    15    7    8 1    
    16    8    9 1    
    17    8   74 1    
    18    8   75 1    
    19    9   10 ar   
    20    9   14 ar   
    21   10   11 ar   
    22   10   76 1    
    23   11   12 ar   
    24   11   48 1    
    25   12   13 ar   
    26   12   77 1    
    27   13   14 ar   
    28   13   15 1    
    29   14   78 1    
    30   15   16 1    
    31   15   79 1    
    32   15   80 1    
    33   16   17 1    
    34   17   18 1    
    35   17   81 1    
    36   17   82 1    
    37   18   19 1    
    38   18   22 1    
    39   18   83 1    
    40   19   20 am   BACKBONE|DICT|INTERRES
    41   19   21 2    
    42   20   84 1    
    43   20   85 1    
    44   22   23 am   BACKBONE|DICT|INTERRES
    45   22   86 1    
    46   23   24 2    
    47   23   25 1    
    48   25   26 1    
    49   25   27 1    
    50   25   87 1    
    51   26   88 1    
    52   26   89 1    
    53   26   90 1    
    54   27   28 am   BACKBONE|DICT|INTERRES
    55   27   91 1    
    56   28   29 2    
    57   28   30 1    
    58   30   31 1    
    59   30   32 1    
    60   30   92 1    
    61   31   93 1    
    62   31   94 1    
    63   31   95 1    
    64   32   33 am   BACKBONE|DICT|INTERRES
    65   32   96 1    
    66   33   34 2    
    67   33   35 1    
    68   35   36 1    
    69   35   37 1    
    70   35   97 1    
    71   36   98 1    
    72   36   99 1    
    73   36  100 1    
    74   37   38 am   BACKBONE|DICT|INTERRES
    75   37  101 1    
    76   38   39 2    
    77   38   40 1    
    78   40   41 1    
    79   40   42 1    
    80   40  102 1    
    81   41  103 1    
    82   41  104 1    
    83   41  105 1    
    84   42   43 am   BACKBONE|DICT|INTERRES
    85   42  106 1    
    86   43   44 2    
    87   43   45 1    
    88   45   46 1    
    89   45   49 1    
    90   45  107 1    
    91   46   47 1    
    92   46  108 1    
    93   46  109 1    
    94   47   48 1    
    95   48  110 1    
    96   48  111 1    
    97   49   50 am   BACKBONE|DICT|INTERRES
    98   49  112 1    
    99   50   51 2    
   100   50   52 1    
   101   52   53 1    
   102   52   54 1    
   103   52  113 1    
   104   53  114 1    
   105   53  115 1    
   106   53  116 1    
   107   54   55 am   BACKBONE|DICT|INTERRES
   108   54  117 1    
   109   55   56 2    
   110   55   57 1    
   111   57   58 1    
   112   57   59 1    
   113   57  118 1    
   114   58  119 1    
   115   58  120 1    
   116   58  121 1    
   117   59   60 am   BACKBONE|DICT|INTERRES
   118   59  122 1    
   119   60   61 2    
   120   60   62 1    
   121   62   63 1    
   122   62   64 1    
   123   62  123 1    
   124   63  124 1    
   125   63  125 1    
   126   63  126 1    
   127   64   65 am   BACKBONE|DICT|INTERRES
   128   64  127 1    
   129   65   66 2    
@<TRIPOS>SUBSTRUCTURE
     1 UNK         1 GROUP             0       ****    0 ROOT    
