@<TRIPOS>MOLECULE
3R134
127   129    1
SMALL
USER_CHARGES


@<TRIPOS>ATOM
      1 CA         34.3245  -45.3503  -57.4834 C.3       0 UNK        -0.1968 
      2 C          34.8349  -45.5155  -56.0602 C.2       0 UNK         0.4852 
      3 O          36.0434  -45.4696  -55.8298 O.2       0 UNK        -0.5359 
      4 N          33.9220  -45.7420  -55.1080 N.am      1 UNK        -0.4300 
      5 CA         34.1436  -45.9377  -53.6660 C.3       1 UNK         0.0863 
      6 C6         34.8726  -44.7615  -52.9611 C.3       11 UNK        -0.0953 
      7 S7         34.0940  -44.3618  -51.3576 S.3       11 UNK        -0.2369 
      8 C8         33.2527  -42.7857  -51.7143 C.3       11 UNK         0.0226 
      9 C9         31.9598  -42.9570  -52.5053 C.ar      11 UNK        -0.0699 
     10 C10        30.7210  -42.9451  -51.8508 C.ar      11 UNK        -0.0804 
     11 C11        29.5265  -42.9881  -52.5812 C.ar      11 UNK        -0.0871 
     12 C12        29.5853  -43.0716  -53.9751 C.ar      11 UNK        -0.1008 
     13 C13        30.8129  -43.1273  -54.6368 C.ar      11 UNK        -0.0735 
     14 C14        31.9963  -43.0551  -53.8998 C.ar      11 UNK        -0.0945 
     15 C15        30.8462  -43.2572  -56.1495 C.3       11 UNK         0.0169 
     16 S16        30.4871  -44.9690  -56.6313 S.3       11 UNK        -0.2669 
     17 C17        30.2688  -44.8007  -58.4322 C.3       11 UNK        -0.0850 
     18 CA         28.8042  -44.5058  -58.8595 C.3       10 UNK         0.0855 
     19 C          28.7127  -44.4521  -60.4136 C.2       10 UNK         0.5543 
     20 N          28.1341  -45.4456  -61.0803 N.am      10 UNK        -0.7343 
     21 O          29.1800  -43.4920  -61.0207 O.2       10 UNK        -0.5027 
     22 N          27.8469  -45.4282  -58.2289 N.am      10 UNK        -0.4495 
     23 C          26.5117  -45.3142  -58.2667 C.2       10 UNK         0.4903 
     24 O          25.9270  -44.3198  -58.6981 O.2       10 UNK        -0.4860 
     25 CA         25.6877  -46.5128  -57.7414 C.3       9 UNK         0.0227 
     26 CB         24.4039  -46.7394  -58.5678 C.3       9 UNK        -0.1964 
     27 N          26.4570  -47.7644  -57.6216 N.am      9 UNK        -0.4231 
     28 C          27.0847  -48.4169  -58.6141 C.2       9 UNK         0.5014 
     29 O          27.0554  -48.0547  -59.7920 O.2       9 UNK        -0.5270 
     30 CA         27.9510  -49.6283  -58.2404 C.3       8 UNK         0.0284 
     31 CB         29.4323  -49.3090  -58.5110 C.3       8 UNK        -0.1977 
     32 N          27.8158  -50.0346  -56.8380 N.am      8 UNK        -0.4342 
     33 C          27.1610  -51.1240  -56.4179 C.2       8 UNK         0.5039 
     34 O          26.4834  -51.8442  -57.1521 O.2       8 UNK        -0.5547 
     35 CA         27.3097  -51.4932  -54.9356 C.3       7 UNK         0.0281 
     36 CB         28.7566  -51.9204  -54.6263 C.3       7 UNK        -0.1963 
     37 N          26.9360  -50.3860  -54.0533 N.am      7 UNK        -0.4444 
     38 C          25.8988  -50.4031  -53.2037 C.2       7 UNK         0.5104 
     39 O          25.0971  -51.3349  -53.1235 O.2       7 UNK        -0.5100 
     40 CA         25.7272  -49.2036  -52.2481 C.3       6 UNK         0.0396 
     41 CB         26.1758  -49.5874  -50.8285 C.3       6 UNK        -0.1801 
     42 N          26.4481  -47.9963  -52.6572 N.am      6 UNK        -0.4747 
     43 C          26.1073  -47.2183  -53.6929 C.2       6 UNK         0.5012 
     44 O          25.1253  -47.4261  -54.4045 O.2       6 UNK        -0.5003 
     45 CA         27.0436  -46.0350  -54.0229 C.3       5 UNK         0.0782 
     46 C46        26.5732  -44.7346  -53.3108 C.3       11 UNK        -0.0868 
     47 S47        27.3201  -44.4599  -51.6584 S.3       11 UNK        -0.2515 
     48 C48        28.1799  -42.8641  -51.8730 C.3       11 UNK         0.0199 
     49 N          28.4661  -46.3128  -53.7900 N.am      5 UNK        -0.4607 
     50 C          29.1681  -47.3735  -54.2031 C.2       4 UNK         0.5031 
     51 O          28.7043  -48.2727  -54.9085 O.2       4 UNK        -0.5119 
     52 CA         30.6092  -47.4508  -53.6823 C.3       4 UNK         0.0263 
     53 CB         30.6637  -47.3132  -52.1478 C.3       4 UNK        -0.1967 
     54 N          31.2691  -48.7017  -54.0605 N.am      4 UNK        -0.4237 
     55 C          31.8974  -48.9052  -55.2224 C.2       3 UNK         0.4908 
     56 O          31.9902  -48.0609  -56.1152 O.2       3 UNK        -0.5102 
     57 CA         32.6685  -50.2218  -55.3606 C.3       3 UNK         0.0241 
     58 CB         32.3770  -50.9326  -56.6922 C.3       3 UNK        -0.1971 
     59 N          34.0635  -49.8124  -55.3067 N.am      3 UNK        -0.4139 
     60 C          34.9551  -50.2124  -54.3938 C.2       2 UNK         0.5016 
     61 O          34.8497  -51.2352  -53.7164 O.2       2 UNK        -0.5319 
     62 CA         36.1153  -49.2320  -54.1349 C.3       2 UNK         0.0286 
     63 CB         37.2405  -49.4229  -55.1640 C.3       2 UNK        -0.1963 
     64 N          35.6542  -47.8359  -54.1588 N.am      2 UNK        -0.4790 
     65 C          34.7573  -47.3099  -53.3092 C.2       1 UNK         0.5024 
     66 O          34.3630  -47.8973  -52.3018 O.2       1 UNK        -0.4888 
     67 H67        34.3266  -44.2974  -57.7636 H         1 UNK         0.0892 
     68 H68        33.3105  -45.7343  -57.5949 H         1 UNK         0.0892 
     69 H69        34.9644  -45.8914  -58.1798 H         1 UNK         0.0892 
     70 H70        32.9579  -45.8435  -55.4008 H         1 UNK         0.3107 
     71 H71        33.1291  -45.9718  -53.2715 H         1 UNK         0.0773 
     72 H72        35.9286  -44.9839  -52.7954 H         1 UNK         0.0680 
     73 H73        34.8722  -43.8680  -53.5846 H         1 UNK         0.0680 
     74 H74        33.0392  -42.2925  -50.7648 H         1 UNK         0.0650 
     75 H75        33.9323  -42.1186  -52.2469 H         1 UNK         0.0650 
     76 H76        30.6874  -42.8581  -50.7732 H         1 UNK         0.1397 
     77 H77        28.6800  -43.0869  -54.5624 H         1 UNK         0.1363 
     78 H78        32.9444  -43.0580  -54.4171 H         1 UNK         0.1355 
     79 H79        31.8185  -42.9621  -56.5470 H         1 UNK         0.0707 
     80 H80        30.1075  -42.5871  -56.5920 H         1 UNK         0.0707 
     81 H81        30.6125  -45.7325  -58.8861 H         1 UNK         0.1034 
     82 H82        30.9412  -44.0237  -58.8014 H         1 UNK         0.1034 
     83 H83        28.5529  -43.5055  -58.5020 H         1 UNK         0.0482 
     84 H84        27.7529  -46.2477  -60.5912 H         1 UNK         0.3460 
     85 H85        28.0802  -45.3994  -62.0852 H         1 UNK         0.3460 
     86 H86        28.2469  -46.2660  -57.8356 H         1 UNK         0.2989 
     87 H87        25.3714  -46.2411  -56.7360 H         1 UNK         0.0559 
     88 H88        24.6248  -46.9374  -59.6171 H         1 UNK         0.0848 
     89 H89        23.7555  -45.8631  -58.5343 H         1 UNK         0.0848 
     90 H90        23.8272  -47.5797  -58.1815 H         1 UNK         0.0848 
     91 H91        26.5347  -48.1476  -56.6897 H         1 UNK         0.3144 
     92 H92        27.6558  -50.4445  -58.9031 H         1 UNK         0.0727 
     93 H93        30.0516  -50.1952  -58.3839 H         1 UNK         0.0790 
     94 H94        29.8108  -48.5340  -57.8425 H         1 UNK         0.0790 
     95 H95        29.5851  -48.9613  -59.5338 H         1 UNK         0.0790 
     96 H96        28.3093  -49.4630  -56.1515 H         1 UNK         0.3215 
     97 H97        26.6678  -52.3584  -54.7555 H         1 UNK         0.0863 
     98 H98        28.8482  -52.2849  -53.6031 H         1 UNK         0.0808 
     99 H99        29.4615  -51.0981  -54.7506 H         1 UNK         0.0808 
    100 H100       29.0761  -52.7279  -55.2867 H         1 UNK         0.0808 
    101 H101       27.5180  -49.5555  -54.0968 H         1 UNK         0.3118 
    102 H102       24.6616  -48.9666  -52.2136 H         1 UNK         0.0546 
    103 H103       25.6317  -50.4622  -50.4695 H         1 UNK         0.0828 
    104 H104       25.9883  -48.7803  -50.1201 H         1 UNK         0.0828 
    105 H105       27.2389  -49.8284  -50.7919 H         1 UNK         0.0828 
    106 H106       27.2645  -47.7435  -52.1192 H         1 UNK         0.3005 
    107 H107       26.9516  -45.8711  -55.0965 H         1 UNK         0.1257 
    108 H108       25.4870  -44.7138  -53.1967 H         1 UNK         0.0775 
    109 H109       26.7817  -43.8779  -53.9483 H         1 UNK         0.0775 
    110 H110       27.5365  -42.1685  -52.4140 H         1 UNK         0.0840 
    111 H111       28.3233  -42.4217  -50.8859 H         1 UNK         0.0840 
    112 H112       28.9317  -45.6280  -53.2104 H         1 UNK         0.2987 
    113 H113       31.1448  -46.6114  -54.1263 H         1 UNK         0.0785 
    114 H114       30.0416  -48.0594  -51.6517 H         1 UNK         0.0798 
    115 H115       30.3252  -46.3298  -51.8184 H         1 UNK         0.0798 
    116 H116       31.6810  -47.4306  -51.7743 H         1 UNK         0.0798 
    117 H117       31.2495  -49.4437  -53.3763 H         1 UNK         0.3079 
    118 H118       32.4198  -50.8905  -54.5333 H         1 UNK         0.0794 
    119 H119       32.5394  -50.2794  -57.5508 H         1 UNK         0.0786 
    120 H120       31.3426  -51.2751  -56.7256 H         1 UNK         0.0786 
    121 H121       33.0122  -51.8097  -56.8166 H         1 UNK         0.0786 
    122 H122       34.2536  -48.9448  -55.7897 H         1 UNK         0.3032 
    123 H123       36.5129  -49.4421  -53.1393 H         1 UNK         0.1094 
    124 H124       38.0908  -48.7768  -54.9449 H         1 UNK         0.0794 
    125 H125       37.6054  -50.4511  -55.1553 H         1 UNK         0.0794 
    126 H126       36.9058  -49.2036  -56.1787 H         1 UNK         0.0794 
    127 H127       35.9696  -47.2449  -54.9226 H         1 UNK         0.3016 
@<TRIPOS>BOND
     1    1    2 1    
     2    1   67 1    
     3    1   68 1    
     4    1   69 1    
     5    2    3 2    
     6    2    4 am   BACKBONE|DICT|INTERRES
     7    4    5 1    
     8    4   70 1    
     9    5    6 1    
    10    5   65 1    
    11    5   71 1    
    12    6    7 1    
    13    6   72 1    
    14    6   73 1    
    15    7    8 1    
    16    8    9 1    
    17    8   74 1    
    18    8   75 1    
    19    9   10 ar   
    20    9   14 ar   
    21   10   11 ar   
    22   10   76 1    
    23   11   12 ar   
    24   11   48 1    
    25   12   13 ar   
    26   12   77 1    
    27   13   14 ar   
    28   13   15 1    
    29   14   78 1    
    30   15   16 1    
    31   15   79 1    
    32   15   80 1    
    33   16   17 1    
    34   17   18 1    
    35   17   81 1    
    36   17   82 1    
    37   18   19 1    
    38   18   22 1    
    39   18   83 1    
    40   19   20 am   BACKBONE|DICT|INTERRES
    41   19   21 2    
    42   20   84 1    
    43   20   85 1    
    44   22   23 am   BACKBONE|DICT|INTERRES
    45   22   86 1    
    46   23   24 2    
    47   23   25 1    
    48   25   26 1    
    49   25   27 1    
    50   25   87 1    
    51   26   88 1    
    52   26   89 1    
    53   26   90 1    
    54   27   28 am   BACKBONE|DICT|INTERRES
    55   27   91 1    
    56   28   29 2    
    57   28   30 1    
    58   30   31 1    
    59   30   32 1    
    60   30   92 1    
    61   31   93 1    
    62   31   94 1    
    63   31   95 1    
    64   32   33 am   BACKBONE|DICT|INTERRES
    65   32   96 1    
    66   33   34 2    
    67   33   35 1    
    68   35   36 1    
    69   35   37 1    
    70   35   97 1    
    71   36   98 1    
    72   36   99 1    
    73   36  100 1    
    74   37   38 am   BACKBONE|DICT|INTERRES
    75   37  101 1    
    76   38   39 2    
    77   38   40 1    
    78   40   41 1    
    79   40   42 1    
    80   40  102 1    
    81   41  103 1    
    82   41  104 1    
    83   41  105 1    
    84   42   43 am   BACKBONE|DICT|INTERRES
    85   42  106 1    
    86   43   44 2    
    87   43   45 1    
    88   45   46 1    
    89   45   49 1    
    90   45  107 1    
    91   46   47 1    
    92   46  108 1    
    93   46  109 1    
    94   47   48 1    
    95   48  110 1    
    96   48  111 1    
    97   49   50 am   BACKBONE|DICT|INTERRES
    98   49  112 1    
    99   50   51 2    
   100   50   52 1    
   101   52   53 1    
   102   52   54 1    
   103   52  113 1    
   104   53  114 1    
   105   53  115 1    
   106   53  116 1    
   107   54   55 am   BACKBONE|DICT|INTERRES
   108   54  117 1    
   109   55   56 2    
   110   55   57 1    
   111   57   58 1    
   112   57   59 1    
   113   57  118 1    
   114   58  119 1    
   115   58  120 1    
   116   58  121 1    
   117   59   60 am   BACKBONE|DICT|INTERRES
   118   59  122 1    
   119   60   61 2    
   120   60   62 1    
   121   62   63 1    
   122   62   64 1    
   123   62  123 1    
   124   63  124 1    
   125   63  125 1    
   126   63  126 1    
   127   64   65 am   BACKBONE|DICT|INTERRES
   128   64  127 1    
   129   65   66 2    
@<TRIPOS>SUBSTRUCTURE
     1 UNK         1 GROUP             0       ****    0 ROOT    
