@<TRIPOS>MOLECULE
3R134
127   129    1
SMALL
USER_CHARGES


@<TRIPOS>ATOM
      1 CA         33.0030  -46.8194  -50.5003 C.3       0 UNK        -0.1968 
      2 C          34.0851  -46.1287  -51.3148 C.2       0 UNK         0.4852 
      3 O          34.7342  -45.2057  -50.8196 O.2       0 UNK        -0.5359 
      4 N          34.2802  -46.5784  -52.5562 N.am      1 UNK        -0.4300 
      5 CA         35.2913  -46.0917  -53.4915 C.3       1 UNK         0.0863 
      6 C6         34.7238  -45.0351  -54.4804 C.3       11 UNK        -0.0953 
      7 S7         33.2701  -45.5771  -55.4529 S.3       11 UNK        -0.2369 
      8 C8         32.4104  -43.9958  -55.7236 C.3       11 UNK         0.0226 
      9 C9         31.0680  -43.9439  -55.0089 C.ar      11 UNK        -0.0699 
     10 C10        31.0031  -43.8431  -53.6146 C.ar      11 UNK        -0.0804 
     11 C11        29.7652  -43.7576  -52.9671 C.ar      11 UNK        -0.0871 
     12 C12        28.5898  -43.7676  -53.7247 C.ar      11 UNK        -0.1008 
     13 C13        28.6432  -43.8866  -55.1148 C.ar      11 UNK        -0.0735 
     14 C14        29.8838  -43.9701  -55.7511 C.ar      11 UNK        -0.0945 
     15 C15        27.3645  -43.9326  -55.9338 C.3       11 UNK         0.0169 
     16 S16        27.0536  -42.3364  -56.7463 S.3       11 UNK        -0.2669 
     17 C17        25.5865  -42.7312  -57.7624 C.3       11 UNK        -0.0850 
     18 CA         25.8137  -42.8391  -59.3018 C.3       10 UNK         0.0855 
     19 C          26.4829  -41.5885  -59.9528 C.2       10 UNK         0.5543 
     20 N          27.3610  -41.7381  -60.9359 N.am      10 UNK        -0.7343 
     21 O          26.1551  -40.4579  -59.6003 O.2       10 UNK        -0.5027 
     22 N          26.2934  -44.1660  -59.7355 N.am      10 UNK        -0.4495 
     23 C          27.5214  -44.6880  -59.6260 C.2       10 UNK         0.4903 
     24 O          28.5033  -44.1013  -59.1708 O.2       10 UNK        -0.4860 
     25 CA         27.6893  -46.1088  -60.1874 C.3       9 UNK         0.0227 
     26 CB         28.3112  -46.0611  -61.5928 C.3       9 UNK        -0.1964 
     27 N          28.5233  -46.9389  -59.3172 N.am      9 UNK        -0.4231 
     28 C          28.1354  -47.4199  -58.1293 C.2       9 UNK         0.5014 
     29 O          27.0201  -47.2238  -57.6394 O.2       9 UNK        -0.5270 
     30 CA         29.1842  -48.2456  -57.3614 C.3       8 UNK         0.0284 
     31 CB         30.0604  -47.3300  -56.4915 C.3       8 UNK        -0.1977 
     32 N          28.5793  -49.2620  -56.5013 N.am      8 UNK        -0.4342 
     33 C          27.8501  -50.3080  -56.9113 C.2       8 UNK         0.5039 
     34 O          27.6457  -50.5826  -58.0950 O.2       8 UNK        -0.5547 
     35 CA         27.2589  -51.2131  -55.8194 C.3       7 UNK         0.0281 
     36 CB         28.2817  -52.2838  -55.4026 C.3       7 UNK        -0.1963 
     37 N          26.8558  -50.4515  -54.6341 N.am      7 UNK        -0.4444 
     38 C          25.5993  -50.0895  -54.3419 C.2       7 UNK         0.5104 
     39 O          24.6301  -50.3514  -55.0553 O.2       7 UNK        -0.5100 
     40 CA         25.3615  -49.3394  -53.0151 C.3       6 UNK         0.0396 
     41 CB         24.7979  -50.3018  -51.9569 C.3       6 UNK        -0.1801 
     42 N          26.5676  -48.7027  -52.4793 N.am      6 UNK        -0.4747 
     43 C          27.0505  -47.5206  -52.8890 C.2       6 UNK         0.5012 
     44 O          26.4807  -46.8014  -53.7089 O.2       6 UNK        -0.5003 
     45 CA         28.4068  -47.0683  -52.3012 C.3       5 UNK         0.0782 
     46 C46        28.1910  -46.0387  -51.1648 C.3       11 UNK        -0.0868 
     47 S47        29.7579  -45.2688  -50.6333 S.3       11 UNK        -0.2515 
     48 C48        29.6930  -43.6419  -51.4509 C.3       11 UNK         0.0199 
     49 N          29.2818  -48.1731  -51.8740 N.am      5 UNK        -0.4607 
     50 C          29.7324  -49.1442  -52.6756 C.2       4 UNK         0.5031 
     51 O          29.3453  -49.3005  -53.8338 O.2       4 UNK        -0.5119 
     52 CA         30.7399  -50.1412  -52.0802 C.3       4 UNK         0.0263 
     53 CB         29.9958  -51.3157  -51.4251 C.3       4 UNK        -0.1967 
     54 N          31.6414  -50.6613  -53.1134 N.am      4 UNK        -0.4237 
     55 C          32.5117  -49.9071  -53.7964 C.2       3 UNK         0.4908 
     56 O          32.7453  -48.7235  -53.5288 O.2       3 UNK        -0.5102 
     57 CA         33.2274  -50.5773  -54.9788 C.3       3 UNK         0.0241 
     58 CB         32.2407  -50.9730  -56.0934 C.3       3 UNK        -0.1971 
     59 N          34.1912  -49.6193  -55.5038 N.am      3 UNK        -0.4139 
     60 C          35.4274  -49.8762  -55.9405 C.2       2 UNK         0.5016 
     61 O          35.8763  -51.0096  -56.1161 O.2       2 UNK        -0.5319 
     62 CA         36.3259  -48.6500  -56.2034 C.3       2 UNK         0.0286 
     63 CB         36.3609  -48.3194  -57.7040 C.3       2 UNK        -0.1963 
     64 N          35.8991  -47.4571  -55.4590 N.am      2 UNK        -0.4790 
     65 C          35.9680  -47.3214  -54.1268 C.2       1 UNK         0.5024 
     66 O          36.5225  -48.1441  -53.3951 O.2       1 UNK        -0.4888 
     67 H67        33.4283  -47.6451  -49.9312 H         1 UNK         0.0892 
     68 H68        32.5488  -46.1195  -49.7998 H         1 UNK         0.0892 
     69 H69        32.2159  -47.2110  -51.1441 H         1 UNK         0.0892 
     70 H70        33.7167  -47.3566  -52.9015 H         1 UNK         0.3107 
     71 H71        36.0895  -45.6038  -52.9280 H         1 UNK         0.0773 
     72 H72        35.4999  -44.6916  -55.1665 H         1 UNK         0.0680 
     73 H73        34.4407  -44.1551  -53.9013 H         1 UNK         0.0680 
     74 H74        32.2734  -43.8659  -56.7980 H         1 UNK         0.0650 
     75 H75        33.0259  -43.1559  -55.4006 H         1 UNK         0.0650 
     76 H76        31.9167  -43.8321  -53.0358 H         1 UNK         0.1397 
     77 H77        27.6294  -43.6941  -53.2338 H         1 UNK         0.1363 
     78 H78        29.9204  -44.0494  -56.8294 H         1 UNK         0.1355 
     79 H79        27.4446  -44.7193  -56.6830 H         1 UNK         0.0707 
     80 H80        26.5128  -44.1943  -55.3038 H         1 UNK         0.0707 
     81 H81        25.1198  -43.6453  -57.3922 H         1 UNK         0.1034 
     82 H82        24.8539  -41.9456  -57.5694 H         1 UNK         0.1034 
     83 H83        24.8118  -42.8111  -59.7320 H         1 UNK         0.0482 
     84 H84        27.6536  -42.6598  -61.2164 H         1 UNK         0.3460 
     85 H85        27.7716  -40.9226  -61.3624 H         1 UNK         0.3460 
     86 H86        25.5854  -44.7387  -60.1724 H         1 UNK         0.2989 
     87 H87        26.7075  -46.5813  -60.2642 H         1 UNK         0.0559 
     88 H88        29.3022  -45.6053  -61.5817 H         1 UNK         0.0848 
     89 H89        27.6923  -45.4763  -62.2745 H         1 UNK         0.0848 
     90 H90        28.4051  -47.0594  -62.0207 H         1 UNK         0.0848 
     91 H91        29.4707  -47.1040  -59.6244 H         1 UNK         0.3144 
     92 H92        29.8212  -48.7611  -58.0830 H         1 UNK         0.0727 
     93 H93        30.8385  -47.8885  -55.9710 H         1 UNK         0.0790 
     94 H94        29.4671  -46.8138  -55.7357 H         1 UNK         0.0790 
     95 H95        30.5584  -46.5698  -57.0943 H         1 UNK         0.0790 
     96 H96        28.7450  -49.1565  -55.5022 H         1 UNK         0.3215 
     97 H97        26.3936  -51.7242  -56.2472 H         1 UNK         0.0863 
     98 H98        29.1701  -51.8412  -54.9517 H         1 UNK         0.0808 
     99 H99        28.6086  -52.8680  -56.2639 H         1 UNK         0.0808 
    100 H100       27.8530  -52.9804  -54.6822 H         1 UNK         0.0808 
    101 H101       27.6075  -50.1226  -54.0375 H         1 UNK         0.3118 
    102 H102       24.6100  -48.5696  -53.2036 H         1 UNK         0.0546 
    103 H103       25.5011  -51.1015  -51.7208 H         1 UNK         0.0828 
    104 H104       23.8775  -50.7713  -52.3071 H         1 UNK         0.0828 
    105 H105       24.5591  -49.7786  -51.0308 H         1 UNK         0.0828 
    106 H106       27.0935  -49.2212  -51.7904 H         1 UNK         0.3005 
    107 H107       28.9265  -46.5651  -53.1201 H         1 UNK         0.1257 
    108 H108       27.7372  -46.5214  -50.2973 H         1 UNK         0.0775 
    109 H109       27.4933  -45.2555  -51.4655 H         1 UNK         0.0775 
    110 H110       28.7858  -43.1169  -51.1476 H         1 UNK         0.0840 
    111 H111       30.5256  -43.0358  -51.0908 H         1 UNK         0.0840 
    112 H112       29.6273  -48.1145  -50.9271 H         1 UNK         0.2987 
    113 H113       31.3411  -49.6311  -51.3249 H         1 UNK         0.0785 
    114 H114       29.3395  -50.9685  -50.6259 H         1 UNK         0.0798 
    115 H115       29.3768  -51.8546  -52.1441 H         1 UNK         0.0798 
    116 H116       30.6916  -52.0281  -50.9815 H         1 UNK         0.0798 
    117 H117       31.4951  -51.6174  -53.4010 H         1 UNK         0.3079 
    118 H118       33.7469  -51.4631  -54.6072 H         1 UNK         0.0794 
    119 H119       31.5411  -51.7363  -55.7528 H         1 UNK         0.0786 
    120 H120       32.7651  -51.3826  -56.9569 H         1 UNK         0.0786 
    121 H121       31.6532  -50.1205  -56.4351 H         1 UNK         0.0786 
    122 H122       33.9400  -48.6549  -55.3261 H         1 UNK         0.3032 
    123 H123       37.3365  -48.9122  -55.8819 H         1 UNK         0.1094 
    124 H124       36.6981  -49.1791  -58.2848 H         1 UNK         0.0794 
    125 H125       35.3759  -48.0388  -58.0791 H         1 UNK         0.0794 
    126 H126       37.0476  -47.4992  -57.9141 H         1 UNK         0.0794 
    127 H127       35.4064  -46.7436  -55.9807 H         1 UNK         0.3016 
@<TRIPOS>BOND
     1    1    2 1    
     2    1   67 1    
     3    1   68 1    
     4    1   69 1    
     5    2    3 2    
     6    2    4 am   BACKBONE|DICT|INTERRES
     7    4    5 1    
     8    4   70 1    
     9    5    6 1    
    10    5   65 1    
    11    5   71 1    
    12    6    7 1    
    13    6   72 1    
    14    6   73 1    
    15    7    8 1    
    16    8    9 1    
    17    8   74 1    
    18    8   75 1    
    19    9   10 ar   
    20    9   14 ar   
    21   10   11 ar   
    22   10   76 1    
    23   11   12 ar   
    24   11   48 1    
    25   12   13 ar   
    26   12   77 1    
    27   13   14 ar   
    28   13   15 1    
    29   14   78 1    
    30   15   16 1    
    31   15   79 1    
    32   15   80 1    
    33   16   17 1    
    34   17   18 1    
    35   17   81 1    
    36   17   82 1    
    37   18   19 1    
    38   18   22 1    
    39   18   83 1    
    40   19   20 am   BACKBONE|DICT|INTERRES
    41   19   21 2    
    42   20   84 1    
    43   20   85 1    
    44   22   23 am   BACKBONE|DICT|INTERRES
    45   22   86 1    
    46   23   24 2    
    47   23   25 1    
    48   25   26 1    
    49   25   27 1    
    50   25   87 1    
    51   26   88 1    
    52   26   89 1    
    53   26   90 1    
    54   27   28 am   BACKBONE|DICT|INTERRES
    55   27   91 1    
    56   28   29 2    
    57   28   30 1    
    58   30   31 1    
    59   30   32 1    
    60   30   92 1    
    61   31   93 1    
    62   31   94 1    
    63   31   95 1    
    64   32   33 am   BACKBONE|DICT|INTERRES
    65   32   96 1    
    66   33   34 2    
    67   33   35 1    
    68   35   36 1    
    69   35   37 1    
    70   35   97 1    
    71   36   98 1    
    72   36   99 1    
    73   36  100 1    
    74   37   38 am   BACKBONE|DICT|INTERRES
    75   37  101 1    
    76   38   39 2    
    77   38   40 1    
    78   40   41 1    
    79   40   42 1    
    80   40  102 1    
    81   41  103 1    
    82   41  104 1    
    83   41  105 1    
    84   42   43 am   BACKBONE|DICT|INTERRES
    85   42  106 1    
    86   43   44 2    
    87   43   45 1    
    88   45   46 1    
    89   45   49 1    
    90   45  107 1    
    91   46   47 1    
    92   46  108 1    
    93   46  109 1    
    94   47   48 1    
    95   48  110 1    
    96   48  111 1    
    97   49   50 am   BACKBONE|DICT|INTERRES
    98   49  112 1    
    99   50   51 2    
   100   50   52 1    
   101   52   53 1    
   102   52   54 1    
   103   52  113 1    
   104   53  114 1    
   105   53  115 1    
   106   53  116 1    
   107   54   55 am   BACKBONE|DICT|INTERRES
   108   54  117 1    
   109   55   56 2    
   110   55   57 1    
   111   57   58 1    
   112   57   59 1    
   113   57  118 1    
   114   58  119 1    
   115   58  120 1    
   116   58  121 1    
   117   59   60 am   BACKBONE|DICT|INTERRES
   118   59  122 1    
   119   60   61 2    
   120   60   62 1    
   121   62   63 1    
   122   62   64 1    
   123   62  123 1    
   124   63  124 1    
   125   63  125 1    
   126   63  126 1    
   127   64   65 am   BACKBONE|DICT|INTERRES
   128   64  127 1    
   129   65   66 2    
@<TRIPOS>SUBSTRUCTURE
     1 UNK         1 GROUP             0       ****    0 ROOT    
