@<TRIPOS>MOLECULE
3R134
127   129    1
SMALL
USER_CHARGES


@<TRIPOS>ATOM
      1 CA         33.5499  -45.3681  -55.5781 C.3       0 UNK        -0.1968 
      2 C          33.4290  -46.3850  -54.4553 C.2       0 UNK         0.4852 
      3 O          34.2738  -47.2731  -54.3416 O.2       0 UNK        -0.5359 
      4 N          32.4027  -46.2436  -53.6045 N.am      1 UNK        -0.4300 
      5 CA         32.0686  -47.1288  -52.4767 C.3       1 UNK         0.0863 
      6 C6         30.7182  -46.7519  -51.8115 C.3       11 UNK        -0.0953 
      7 S7         30.5576  -44.9788  -51.3903 S.3       11 UNK        -0.2369 
      8 C8         29.1887  -44.4485  -52.4704 C.3       11 UNK         0.0226 
      9 C9         29.6211  -44.3188  -53.9242 C.ar      11 UNK        -0.0699 
     10 C10        29.5053  -45.4054  -54.7937 C.ar      11 UNK        -0.0804 
     11 C11        29.8873  -45.3000  -56.1385 C.ar      11 UNK        -0.0871 
     12 C12        30.3821  -44.0771  -56.6023 C.ar      11 UNK        -0.1008 
     13 C13        30.4845  -42.9750  -55.7481 C.ar      11 UNK        -0.0735 
     14 C14        30.1113  -43.1046  -54.4079 C.ar      11 UNK        -0.0945 
     15 C15        31.0011  -41.6412  -56.2642 C.3       11 UNK         0.0169 
     16 S16        29.6377  -40.5019  -56.6679 S.3       11 UNK        -0.2669 
     17 C17        29.0521  -41.1522  -58.2719 C.3       11 UNK        -0.0850 
     18 CA         27.5809  -41.6475  -58.2414 C.3       10 UNK         0.0855 
     19 C          27.1014  -42.0133  -59.6794 C.2       10 UNK         0.5543 
     20 N          26.7494  -43.2575  -59.9827 N.am      10 UNK        -0.7343 
     21 O          27.0473  -41.1404  -60.5422 O.2       10 UNK        -0.5027 
     22 N          27.3773  -42.7010  -57.2350 N.am      10 UNK        -0.4495 
     23 C          26.1873  -43.1148  -56.7865 C.2       10 UNK         0.4903 
     24 O          25.1091  -42.5971  -57.0850 O.2       10 UNK        -0.4860 
     25 CA         26.2118  -44.3336  -55.8522 C.3       9 UNK         0.0227 
     26 CB         25.7576  -43.9611  -54.4325 C.3       9 UNK        -0.1964 
     27 N          25.4122  -45.4513  -56.3546 N.am      9 UNK        -0.4231 
     28 C          25.5518  -46.0460  -57.5467 C.2       9 UNK         0.5014 
     29 O          26.3911  -45.7120  -58.3872 O.2       9 UNK        -0.5270 
     30 CA         24.5966  -47.2220  -57.8334 C.3       8 UNK         0.0284 
     31 CB         24.6490  -47.6737  -59.3050 C.3       8 UNK        -0.1977 
     32 N          24.8603  -48.3842  -56.9809 N.am      8 UNK        -0.4342 
     33 C          24.6059  -48.4928  -55.6722 C.2       8 UNK         0.5039 
     34 O          24.1025  -47.5838  -55.0088 O.2       8 UNK        -0.5547 
     35 CA         24.9543  -49.8201  -54.9638 C.3       7 UNK         0.0281 
     36 CB         23.6806  -50.6571  -54.7325 C.3       7 UNK        -0.1963 
     37 N          26.0132  -50.6422  -55.5775 N.am      7 UNK        -0.4444 
     38 C          26.0306  -51.2563  -56.7694 C.2       7 UNK         0.5104 
     39 O          25.1331  -51.1482  -57.6057 O.2       7 UNK        -0.5100 
     40 CA         27.2890  -52.0849  -57.0925 C.3       6 UNK         0.0396 
     41 CB         27.2557  -52.6836  -58.5113 C.3       6 UNK        -0.1801 
     42 N          28.4940  -51.2653  -56.9521 N.am      6 UNK        -0.4747 
     43 C          29.2109  -51.1306  -55.8300 C.2       6 UNK         0.5012 
     44 O          28.9597  -51.7293  -54.7808 O.2       6 UNK        -0.5003 
     45 CA         30.3655  -50.1177  -55.8656 C.3       5 UNK         0.0782 
     46 C46        29.9147  -48.7096  -55.4037 C.3       11 UNK        -0.0868 
     47 S47        28.7838  -47.8927  -56.5828 S.3       11 UNK        -0.2515 
     48 C48        29.7785  -46.4615  -57.1314 C.3       11 UNK         0.0199 
     49 N          31.4396  -50.6397  -55.0254 N.am      5 UNK        -0.4607 
     50 C          32.7320  -50.3427  -55.1769 C.2       4 UNK         0.5031 
     51 O          33.1606  -49.5848  -56.0491 O.2       4 UNK        -0.5119 
     52 CA         33.7148  -51.0367  -54.2278 C.3       4 UNK         0.0263 
     53 CB         34.2297  -52.3391  -54.8763 C.3       4 UNK        -0.1967 
     54 N          34.8111  -50.1121  -53.9396 N.am      4 UNK        -0.4237 
     55 C          35.8254  -50.3148  -53.0882 C.2       3 UNK         0.4908 
     56 O          35.9630  -51.3311  -52.4065 O.2       3 UNK        -0.5102 
     57 CA         36.8499  -49.1800  -52.9532 C.3       3 UNK         0.0241 
     58 CB         37.4688  -48.8003  -54.3112 C.3       3 UNK        -0.1971 
     59 N          36.1976  -48.0145  -52.3635 N.am      3 UNK        -0.4139 
     60 C          36.3068  -47.6329  -51.0829 C.2       2 UNK         0.5016 
     61 O          37.0782  -48.1510  -50.2741 O.2       2 UNK        -0.5319 
     62 CA         35.3921  -46.4843  -50.6093 C.3       2 UNK         0.0286 
     63 CB         36.1417  -45.1432  -50.6563 C.3       2 UNK        -0.1963 
     64 N          34.1547  -46.3696  -51.3867 N.am      2 UNK        -0.4790 
     65 C          33.1869  -47.2978  -51.4237 C.2       1 UNK         0.5024 
     66 O          33.1720  -48.2879  -50.6913 O.2       1 UNK        -0.4888 
     67 H67        33.1516  -45.7843  -56.5028 H         1 UNK         0.0892 
     68 H68        33.0089  -44.4508  -55.3491 H         1 UNK         0.0892 
     69 H69        34.5954  -45.1088  -55.7420 H         1 UNK         0.0892 
     70 H70        31.7561  -45.4773  -53.7407 H         1 UNK         0.3107 
     71 H71        31.9418  -48.1230  -52.9101 H         1 UNK         0.0773 
     72 H72        30.5559  -47.3323  -50.9010 H         1 UNK         0.0680 
     73 H73        29.8991  -47.0445  -52.4660 H         1 UNK         0.0680 
     74 H74        28.3544  -45.1458  -52.3789 H         1 UNK         0.0650 
     75 H75        28.8161  -43.4876  -52.1122 H         1 UNK         0.0650 
     76 H76        29.0917  -46.3252  -54.4131 H         1 UNK         0.1397 
     77 H77        30.6831  -43.9815  -57.6370 H         1 UNK         0.1363 
     78 H78        30.1920  -42.2544  -53.7441 H         1 UNK         0.1355 
     79 H79        31.6415  -41.7811  -57.1366 H         1 UNK         0.0707 
     80 H80        31.6290  -41.1775  -55.5019 H         1 UNK         0.0707 
     81 H81        29.1616  -40.3444  -58.9984 H         1 UNK         0.1034 
     82 H82        29.7129  -41.9479  -58.6185 H         1 UNK         0.1034 
     83 H83        26.9631  -40.8012  -57.9348 H         1 UNK         0.0482 
     84 H84        26.7586  -43.9976  -59.2872 H         1 UNK         0.3460 
     85 H85        26.4436  -43.4632  -60.9199 H         1 UNK         0.3460 
     86 H86        28.2115  -43.1747  -56.9170 H         1 UNK         0.2989 
     87 H87        27.2326  -44.6972  -55.7940 H         1 UNK         0.0559 
     88 H88        25.8515  -44.8067  -53.7509 H         1 UNK         0.0848 
     89 H89        24.7191  -43.6278  -54.4162 H         1 UNK         0.0848 
     90 H90        26.3683  -43.1519  -54.0295 H         1 UNK         0.0848 
     91 H91        24.7413  -45.8671  -55.7145 H         1 UNK         0.3144 
     92 H92        23.5823  -46.8723  -57.6298 H         1 UNK         0.0727 
     93 H93        23.9129  -48.4517  -59.5083 H         1 UNK         0.0790 
     94 H94        25.6321  -48.0644  -59.5715 H         1 UNK         0.0790 
     95 H95        24.4348  -46.8416  -59.9772 H         1 UNK         0.0790 
     96 H96        25.2083  -49.2179  -57.4428 H         1 UNK         0.3215 
     97 H97        25.3409  -49.5380  -53.9830 H         1 UNK         0.0863 
     98 H98        23.8933  -51.5506  -54.1456 H         1 UNK         0.0808 
     99 H99        23.2244  -50.9721  -55.6715 H         1 UNK         0.0808 
    100 H100       22.9307  -50.0831  -54.1862 H         1 UNK         0.0808 
    101 H101       26.8333  -50.7791  -54.9994 H         1 UNK         0.3118 
    102 H102       27.3202  -52.9161  -56.3848 H         1 UNK         0.0546 
    103 H103       27.2057  -51.9092  -59.2778 H         1 UNK         0.0828 
    104 H104       26.3863  -53.3292  -58.6428 H         1 UNK         0.0828 
    105 H105       28.1394  -53.2913  -58.7058 H         1 UNK         0.0828 
    106 H106       28.7291  -50.6868  -57.7472 H         1 UNK         0.3005 
    107 H107       30.7341  -50.0576  -56.8928 H         1 UNK         0.1257 
    108 H108       29.4290  -48.7601  -54.4274 H         1 UNK         0.0775 
    109 H109       30.7896  -48.0731  -55.2666 H         1 UNK         0.0775 
    110 H110       30.7798  -46.8018  -57.3992 H         1 UNK         0.0840 
    111 H111       29.3239  -46.0890  -58.0510 H         1 UNK         0.0840 
    112 H112       31.1392  -51.3117  -54.3301 H         1 UNK         0.2987 
    113 H113       33.2047  -51.2673  -53.2904 H         1 UNK         0.0785 
    114 H114       34.8551  -52.9146  -54.1946 H         1 UNK         0.0798 
    115 H115       34.8137  -52.1346  -55.7746 H         1 UNK         0.0798 
    116 H116       33.4012  -52.9867  -55.1665 H         1 UNK         0.0798 
    117 H117       34.7337  -49.2151  -54.4171 H         1 UNK         0.3079 
    118 H118       37.6567  -49.5333  -52.3073 H         1 UNK         0.0794 
    119 H119       37.9168  -49.6706  -54.7925 H         1 UNK         0.0786 
    120 H120       38.2572  -48.0579  -54.1868 H         1 UNK         0.0786 
    121 H121       36.7328  -48.3864  -55.0014 H         1 UNK         0.0786 
    122 H122       35.5018  -47.5587  -52.9501 H         1 UNK         0.3032 
    123 H123       35.1204  -46.6926  -49.5719 H         1 UNK         0.1094 
    124 H124       35.5340  -44.3337  -50.2514 H         1 UNK         0.0794 
    125 H125       37.0563  -45.1872  -50.0629 H         1 UNK         0.0794 
    126 H126       36.4266  -44.8748  -51.6744 H         1 UNK         0.0794 
    127 H127       34.0789  -45.5832  -52.0155 H         1 UNK         0.3016 
@<TRIPOS>BOND
     1    1    2 1    
     2    1   67 1    
     3    1   68 1    
     4    1   69 1    
     5    2    3 2    
     6    2    4 am   BACKBONE|DICT|INTERRES
     7    4    5 1    
     8    4   70 1    
     9    5    6 1    
    10    5   65 1    
    11    5   71 1    
    12    6    7 1    
    13    6   72 1    
    14    6   73 1    
    15    7    8 1    
    16    8    9 1    
    17    8   74 1    
    18    8   75 1    
    19    9   10 ar   
    20    9   14 ar   
    21   10   11 ar   
    22   10   76 1    
    23   11   12 ar   
    24   11   48 1    
    25   12   13 ar   
    26   12   77 1    
    27   13   14 ar   
    28   13   15 1    
    29   14   78 1    
    30   15   16 1    
    31   15   79 1    
    32   15   80 1    
    33   16   17 1    
    34   17   18 1    
    35   17   81 1    
    36   17   82 1    
    37   18   19 1    
    38   18   22 1    
    39   18   83 1    
    40   19   20 am   BACKBONE|DICT|INTERRES
    41   19   21 2    
    42   20   84 1    
    43   20   85 1    
    44   22   23 am   BACKBONE|DICT|INTERRES
    45   22   86 1    
    46   23   24 2    
    47   23   25 1    
    48   25   26 1    
    49   25   27 1    
    50   25   87 1    
    51   26   88 1    
    52   26   89 1    
    53   26   90 1    
    54   27   28 am   BACKBONE|DICT|INTERRES
    55   27   91 1    
    56   28   29 2    
    57   28   30 1    
    58   30   31 1    
    59   30   32 1    
    60   30   92 1    
    61   31   93 1    
    62   31   94 1    
    63   31   95 1    
    64   32   33 am   BACKBONE|DICT|INTERRES
    65   32   96 1    
    66   33   34 2    
    67   33   35 1    
    68   35   36 1    
    69   35   37 1    
    70   35   97 1    
    71   36   98 1    
    72   36   99 1    
    73   36  100 1    
    74   37   38 am   BACKBONE|DICT|INTERRES
    75   37  101 1    
    76   38   39 2    
    77   38   40 1    
    78   40   41 1    
    79   40   42 1    
    80   40  102 1    
    81   41  103 1    
    82   41  104 1    
    83   41  105 1    
    84   42   43 am   BACKBONE|DICT|INTERRES
    85   42  106 1    
    86   43   44 2    
    87   43   45 1    
    88   45   46 1    
    89   45   49 1    
    90   45  107 1    
    91   46   47 1    
    92   46  108 1    
    93   46  109 1    
    94   47   48 1    
    95   48  110 1    
    96   48  111 1    
    97   49   50 am   BACKBONE|DICT|INTERRES
    98   49  112 1    
    99   50   51 2    
   100   50   52 1    
   101   52   53 1    
   102   52   54 1    
   103   52  113 1    
   104   53  114 1    
   105   53  115 1    
   106   53  116 1    
   107   54   55 am   BACKBONE|DICT|INTERRES
   108   54  117 1    
   109   55   56 2    
   110   55   57 1    
   111   57   58 1    
   112   57   59 1    
   113   57  118 1    
   114   58  119 1    
   115   58  120 1    
   116   58  121 1    
   117   59   60 am   BACKBONE|DICT|INTERRES
   118   59  122 1    
   119   60   61 2    
   120   60   62 1    
   121   62   63 1    
   122   62   64 1    
   123   62  123 1    
   124   63  124 1    
   125   63  125 1    
   126   63  126 1    
   127   64   65 am   BACKBONE|DICT|INTERRES
   128   64  127 1    
   129   65   66 2    
@<TRIPOS>SUBSTRUCTURE
     1 UNK         1 GROUP             0       ****    0 ROOT    
