@<TRIPOS>MOLECULE
3R134
127   129    1
SMALL
USER_CHARGES


@<TRIPOS>ATOM
      1 CA         29.2651  -44.7748  -49.6480 C.3       0 UNK        -0.1968 
      2 C          30.6799  -45.3274  -49.5502 C.2       0 UNK         0.4852 
      3 O          31.0809  -45.7984  -48.4843 O.2       0 UNK        -0.5359 
      4 N          31.4380  -45.2621  -50.6516 N.am      1 UNK        -0.4300 
      5 CA         32.8022  -45.7875  -50.7732 C.3       1 UNK         0.0863 
      6 C6         33.5262  -45.2169  -52.0200 C.3       11 UNK        -0.0953 
      7 S7         33.6198  -43.3972  -51.9814 S.3       11 UNK        -0.2369 
      8 C8         34.2438  -43.0268  -53.6538 C.3       11 UNK         0.0226 
      9 C9         33.2571  -43.3678  -54.7670 C.ar      11 UNK        -0.0699 
     10 C10        33.6961  -44.0663  -55.8948 C.ar      11 UNK        -0.0804 
     11 C11        32.8164  -44.3519  -56.9426 C.ar      11 UNK        -0.0871 
     12 C12        31.4792  -43.9586  -56.8459 C.ar      11 UNK        -0.1008 
     13 C13        31.0223  -43.2454  -55.7277 C.ar      11 UNK        -0.0735 
     14 C14        31.9232  -42.9518  -54.6988 C.ar      11 UNK        -0.0945 
     15 C15        29.5705  -42.7902  -55.5686 C.3       11 UNK         0.0169 
     16 S16        28.5983  -42.7379  -57.1113 S.3       11 UNK        -0.2669 
     17 C17        26.9426  -42.3403  -56.4559 C.3       11 UNK        -0.0850 
     18 CA         26.0780  -43.6008  -56.1920 C.3       10 UNK         0.0855 
     19 C          24.6952  -43.1875  -55.6171 C.2       10 UNK         0.5543 
     20 N          24.5392  -43.2025  -54.3006 N.am      10 UNK        -0.7343 
     21 O          23.7861  -42.8056  -56.3519 O.2       10 UNK        -0.5027 
     22 N          25.9818  -44.4412  -57.3947 N.am      10 UNK        -0.4495 
     23 C          25.3691  -45.6277  -57.4786 C.2       10 UNK         0.4903 
     24 O          24.7842  -46.1672  -56.5386 O.2       10 UNK        -0.4860 
     25 CA         25.4172  -46.3523  -58.8332 C.3       9 UNK         0.0227 
     26 CB         26.2218  -45.6207  -59.9292 C.3       9 UNK        -0.1964 
     27 N          26.0016  -47.6699  -58.6063 N.am      9 UNK        -0.4231 
     28 C          25.4269  -48.8404  -58.9056 C.2       9 UNK         0.5014 
     29 O          24.3556  -48.9523  -59.5043 O.2       9 UNK        -0.5270 
     30 CA         26.1716  -50.1103  -58.4602 C.3       8 UNK         0.0284 
     31 CB         27.2314  -50.5079  -59.5005 C.3       8 UNK        -0.1977 
     32 N          26.8047  -49.9780  -57.1455 N.am      8 UNK        -0.4342 
     33 C          26.1461  -49.8773  -55.9812 C.2       8 UNK         0.5039 
     34 O          24.9192  -49.9095  -55.8817 O.2       8 UNK        -0.5547 
     35 CA         26.9982  -49.7246  -54.7119 C.3       7 UNK         0.0281 
     36 CB         27.5431  -51.0868  -54.2502 C.3       7 UNK        -0.1963 
     37 N          28.1100  -48.7994  -54.9309 N.am      7 UNK        -0.4444 
     38 C          28.0597  -47.4811  -54.6944 C.2       7 UNK         0.5104 
     39 O          27.1013  -46.9137  -54.1709 O.2       7 UNK        -0.5100 
     40 CA         29.2855  -46.6437  -55.1003 C.3       6 UNK         0.0396 
     41 CB         30.1382  -46.3045  -53.8701 C.3       6 UNK        -0.1801 
     42 N          30.1263  -47.2940  -56.1073 N.am      6 UNK        -0.4747 
     43 C          29.7909  -47.4014  -57.4011 C.2       6 UNK         0.5012 
     44 O          28.7393  -46.9632  -57.8671 O.2       6 UNK        -0.5003 
     45 CA         30.7429  -48.1908  -58.3234 C.3       5 UNK         0.0782 
     46 C46        31.7527  -47.2649  -59.0483 C.3       11 UNK        -0.0868 
     47 S47        33.2374  -46.8533  -58.0611 S.3       11 UNK        -0.2515 
     48 C48        33.3301  -45.0431  -58.1963 C.3       11 UNK         0.0199 
     49 N          31.4025  -49.3166  -57.6538 N.am      5 UNK        -0.4607 
     50 C          30.7815  -50.3358  -57.0496 C.2       4 UNK         0.5031 
     51 O          29.5593  -50.4753  -57.0428 O.2       4 UNK        -0.5119 
     52 CA         31.6563  -51.3409  -56.2820 C.3       4 UNK         0.0263 
     53 CB         31.9467  -52.5688  -57.1588 C.3       4 UNK        -0.1967 
     54 N          32.9211  -50.7945  -55.7705 N.am      4 UNK        -0.4237 
     55 C          33.0319  -49.7711  -54.9109 C.2       3 UNK         0.4908 
     56 O          32.0801  -49.0878  -54.5275 O.2       3 UNK        -0.5102 
     57 CA         34.4529  -49.4303  -54.4319 C.3       3 UNK         0.0241 
     58 CB         35.0273  -48.2522  -55.2342 C.3       3 UNK        -0.1971 
     59 N          34.4666  -49.0863  -53.0106 N.am      3 UNK        -0.4139 
     60 C          34.2492  -49.9467  -52.0060 C.2       2 UNK         0.5016 
     61 O          34.0941  -51.1587  -52.1649 O.2       2 UNK        -0.5319 
     62 CA         34.2173  -49.3674  -50.5774 C.3       2 UNK         0.0286 
     63 CB         35.5264  -49.6894  -49.8374 C.3       2 UNK        -0.1963 
     64 N          33.9866  -47.9180  -50.5310 N.am      2 UNK        -0.4790 
     65 C          32.8122  -47.3310  -50.8013 C.2       1 UNK         0.5024 
     66 O          31.7922  -47.9592  -51.0934 O.2       1 UNK        -0.4888 
     67 H67        29.1233  -43.9750  -48.9215 H         1 UNK         0.0892 
     68 H68        29.0500  -44.3747  -50.6387 H         1 UNK         0.0892 
     69 H69        28.5408  -45.5610  -49.4361 H         1 UNK         0.0892 
     70 H70        31.0581  -44.8568  -51.4931 H         1 UNK         0.3107 
     71 H71        33.3554  -45.4749  -49.8845 H         1 UNK         0.0773 
     72 H72        34.5477  -45.5957  -52.0855 H         1 UNK         0.0680 
     73 H73        33.0230  -45.5306  -52.9360 H         1 UNK         0.0680 
     74 H74        35.1884  -43.5543  -53.7958 H         1 UNK         0.0650 
     75 H75        34.4737  -41.9622  -53.7104 H         1 UNK         0.0650 
     76 H76        34.7305  -44.3734  -55.9689 H         1 UNK         0.1397 
     77 H77        30.8049  -44.2058  -57.6531 H         1 UNK         0.1363 
     78 H78        31.5831  -42.3993  -53.8335 H         1 UNK         0.1355 
     79 H79        29.0758  -43.4523  -54.8574 H         1 UNK         0.0707 
     80 H80        29.5540  -41.7925  -55.1268 H         1 UNK         0.0707 
     81 H81        27.0507  -41.7497  -55.5439 H         1 UNK         0.1034 
     82 H82        26.4470  -41.6859  -57.1760 H         1 UNK         0.1034 
     83 H83        26.5873  -44.2053  -55.4384 H         1 UNK         0.0482 
     84 H84        25.2789  -43.5158  -53.6915 H         1 UNK         0.3460 
     85 H85        23.6543  -42.9203  -53.9087 H         1 UNK         0.3460 
     86 H86        26.4491  -44.0814  -58.2130 H         1 UNK         0.2989 
     87 H87        24.3836  -46.4429  -59.1728 H         1 UNK         0.0559 
     88 H88        27.2648  -45.4736  -59.6446 H         1 UNK         0.0848 
     89 H89        25.7912  -44.6442  -60.1540 H         1 UNK         0.0848 
     90 H90        26.2156  -46.1894  -60.8591 H         1 UNK         0.0848 
     91 H91        26.8924  -47.6656  -58.1179 H         1 UNK         0.3144 
     92 H92        25.4396  -50.9183  -58.3962 H         1 UNK         0.0727 
     93 H93        27.7284  -51.4386  -59.2257 H         1 UNK         0.0790 
     94 H94        27.9968  -49.7396  -59.6101 H         1 UNK         0.0790 
     95 H95        26.7777  -50.6591  -60.4809 H         1 UNK         0.0790 
     96 H96        27.8218  -50.0373  -57.1233 H         1 UNK         0.3215 
     97 H97        26.3520  -49.3385  -53.9202 H         1 UNK         0.0863 
     98 H98        28.1186  -50.9906  -53.3293 H         1 UNK         0.0808 
     99 H99        28.1867  -51.5479  -54.9999 H         1 UNK         0.0808 
    100 H100       26.7272  -51.7829  -54.0509 H         1 UNK         0.0808 
    101 H101       28.9345  -49.1735  -55.3826 H         1 UNK         0.3118 
    102 H102       28.9129  -45.7102  -55.5254 H         1 UNK         0.0546 
    103 H103       29.5562  -45.7477  -53.1354 H         1 UNK         0.0828 
    104 H104       30.9958  -45.6920  -54.1440 H         1 UNK         0.0828 
    105 H105       30.5113  -47.2039  -53.3792 H         1 UNK         0.0828 
    106 H106       30.9816  -47.7296  -55.7775 H         1 UNK         0.3005 
    107 H107       30.1031  -48.6275  -59.0930 H         1 UNK         0.1257 
    108 H108       31.2604  -46.3567  -59.4012 H         1 UNK         0.0775 
    109 H109       32.1058  -47.7663  -59.9507 H         1 UNK         0.0775 
    110 H110       34.3724  -44.7664  -58.3622 H         1 UNK         0.0840 
    111 H111       32.7921  -44.6902  -59.0771 H         1 UNK         0.0840 
    112 H112       32.4084  -49.2569  -57.5904 H         1 UNK         0.2987 
    113 H113       31.0750  -51.6694  -55.4178 H         1 UNK         0.0785 
    114 H114       31.0210  -53.0092  -57.5329 H         1 UNK         0.0798 
    115 H115       32.4667  -53.3451  -56.5971 H         1 UNK         0.0798 
    116 H116       32.5582  -52.3117  -58.0248 H         1 UNK         0.0798 
    117 H117       33.7609  -51.2830  -56.0471 H         1 UNK         0.3079 
    118 H118       35.0984  -50.2996  -54.5752 H         1 UNK         0.0794 
    119 H119       34.4044  -47.3603  -55.1459 H         1 UNK         0.0786 
    120 H120       35.0953  -48.5001  -56.2940 H         1 UNK         0.0786 
    121 H121       36.0326  -47.9942  -54.9005 H         1 UNK         0.0786 
    122 H122       34.5544  -48.1088  -52.7819 H         1 UNK         0.3032 
    123 H123       33.3967  -49.8617  -50.0516 H         1 UNK         0.1094 
    124 H124       36.3867  -49.2157  -50.3119 H         1 UNK         0.0794 
    125 H125       35.4884  -49.3579  -48.7995 H         1 UNK         0.0794 
    126 H126       35.7132  -50.7643  -49.8243 H         1 UNK         0.0794 
    127 H127       34.7802  -47.3410  -50.2878 H         1 UNK         0.3016 
@<TRIPOS>BOND
     1    1    2 1    
     2    1   67 1    
     3    1   68 1    
     4    1   69 1    
     5    2    3 2    
     6    2    4 am   BACKBONE|DICT|INTERRES
     7    4    5 1    
     8    4   70 1    
     9    5    6 1    
    10    5   65 1    
    11    5   71 1    
    12    6    7 1    
    13    6   72 1    
    14    6   73 1    
    15    7    8 1    
    16    8    9 1    
    17    8   74 1    
    18    8   75 1    
    19    9   10 ar   
    20    9   14 ar   
    21   10   11 ar   
    22   10   76 1    
    23   11   12 ar   
    24   11   48 1    
    25   12   13 ar   
    26   12   77 1    
    27   13   14 ar   
    28   13   15 1    
    29   14   78 1    
    30   15   16 1    
    31   15   79 1    
    32   15   80 1    
    33   16   17 1    
    34   17   18 1    
    35   17   81 1    
    36   17   82 1    
    37   18   19 1    
    38   18   22 1    
    39   18   83 1    
    40   19   20 am   BACKBONE|DICT|INTERRES
    41   19   21 2    
    42   20   84 1    
    43   20   85 1    
    44   22   23 am   BACKBONE|DICT|INTERRES
    45   22   86 1    
    46   23   24 2    
    47   23   25 1    
    48   25   26 1    
    49   25   27 1    
    50   25   87 1    
    51   26   88 1    
    52   26   89 1    
    53   26   90 1    
    54   27   28 am   BACKBONE|DICT|INTERRES
    55   27   91 1    
    56   28   29 2    
    57   28   30 1    
    58   30   31 1    
    59   30   32 1    
    60   30   92 1    
    61   31   93 1    
    62   31   94 1    
    63   31   95 1    
    64   32   33 am   BACKBONE|DICT|INTERRES
    65   32   96 1    
    66   33   34 2    
    67   33   35 1    
    68   35   36 1    
    69   35   37 1    
    70   35   97 1    
    71   36   98 1    
    72   36   99 1    
    73   36  100 1    
    74   37   38 am   BACKBONE|DICT|INTERRES
    75   37  101 1    
    76   38   39 2    
    77   38   40 1    
    78   40   41 1    
    79   40   42 1    
    80   40  102 1    
    81   41  103 1    
    82   41  104 1    
    83   41  105 1    
    84   42   43 am   BACKBONE|DICT|INTERRES
    85   42  106 1    
    86   43   44 2    
    87   43   45 1    
    88   45   46 1    
    89   45   49 1    
    90   45  107 1    
    91   46   47 1    
    92   46  108 1    
    93   46  109 1    
    94   47   48 1    
    95   48  110 1    
    96   48  111 1    
    97   49   50 am   BACKBONE|DICT|INTERRES
    98   49  112 1    
    99   50   51 2    
   100   50   52 1    
   101   52   53 1    
   102   52   54 1    
   103   52  113 1    
   104   53  114 1    
   105   53  115 1    
   106   53  116 1    
   107   54   55 am   BACKBONE|DICT|INTERRES
   108   54  117 1    
   109   55   56 2    
   110   55   57 1    
   111   57   58 1    
   112   57   59 1    
   113   57  118 1    
   114   58  119 1    
   115   58  120 1    
   116   58  121 1    
   117   59   60 am   BACKBONE|DICT|INTERRES
   118   59  122 1    
   119   60   61 2    
   120   60   62 1    
   121   62   63 1    
   122   62   64 1    
   123   62  123 1    
   124   63  124 1    
   125   63  125 1    
   126   63  126 1    
   127   64   65 am   BACKBONE|DICT|INTERRES
   128   64  127 1    
   129   65   66 2    
@<TRIPOS>SUBSTRUCTURE
     1 UNK         1 GROUP             0       ****    0 ROOT    
