@<TRIPOS>MOLECULE
3R134
127   129    1
SMALL
USER_CHARGES


@<TRIPOS>ATOM
      1 CA         36.8248  -44.4373  -49.7098 C.3       0 UNK        -0.1968 
      2 C          36.4421  -45.6491  -50.5459 C.2       0 UNK         0.4852 
      3 O          36.4692  -46.7744  -50.0443 O.2       0 UNK        -0.5359 
      4 N          36.0690  -45.4325  -51.8137 N.am      1 UNK        -0.4300 
      5 CA         35.6707  -46.4503  -52.7954 C.3       1 UNK         0.0863 
      6 C6         35.9336  -45.9598  -54.2488 C.3       11 UNK        -0.0953 
      7 S7         35.1981  -44.3328  -54.6616 S.3       11 UNK        -0.2369 
      8 C8         33.9669  -44.7739  -55.9386 C.3       11 UNK         0.0226 
      9 C9         32.6460  -44.0296  -55.7895 C.ar      11 UNK        -0.0699 
     10 C10        32.0459  -43.9099  -54.5343 C.ar      11 UNK        -0.0804 
     11 C11        30.7985  -43.3008  -54.3944 C.ar      11 UNK        -0.0871 
     12 C12        30.1577  -42.7777  -55.5187 C.ar      11 UNK        -0.1008 
     13 C13        30.7327  -42.9062  -56.7861 C.ar      11 UNK        -0.0735 
     14 C14        31.9796  -43.5311  -56.9148 C.ar      11 UNK        -0.0945 
     15 C15        30.0008  -42.3849  -58.0154 C.3       11 UNK         0.0169 
     16 S16        28.6050  -43.4628  -58.4807 S.3       11 UNK        -0.2669 
     17 C17        27.1966  -42.5988  -57.6943 C.3       11 UNK        -0.0850 
     18 CA         25.8123  -43.2353  -57.9871 C.3       10 UNK         0.0855 
     19 C          25.3896  -43.0879  -59.4806 C.2       10 UNK         0.5543 
     20 N          25.1436  -44.1626  -60.2219 N.am      10 UNK        -0.7343 
     21 O          25.2674  -41.9682  -59.9714 O.2       10 UNK        -0.5027 
     22 N          25.7240  -44.5976  -57.4435 N.am      10 UNK        -0.4495 
     23 C          24.5843  -45.2457  -57.1678 C.2       10 UNK         0.4903 
     24 O          23.4713  -44.7196  -57.2199 O.2       10 UNK        -0.4860 
     25 CA         24.7138  -46.7341  -56.7797 C.3       9 UNK         0.0227 
     26 CB         23.4260  -47.5382  -57.0556 C.3       9 UNK        -0.1964 
     27 N          25.8766  -47.3956  -57.3881 N.am      9 UNK        -0.4231 
     28 C          26.1447  -47.5168  -58.6983 C.2       9 UNK         0.5014 
     29 O          25.4158  -47.0829  -59.5920 O.2       9 UNK        -0.5270 
     30 CA         27.4690  -48.1901  -59.0860 C.3       8 UNK         0.0284 
     31 CB         28.5697  -47.1302  -59.2531 C.3       8 UNK        -0.1977 
     32 N          27.9077  -49.2059  -58.1260 N.am      8 UNK        -0.4342 
     33 C          27.3828  -50.4363  -58.0414 C.2       8 UNK         0.5039 
     34 O          26.4569  -50.8354  -58.7495 O.2       8 UNK        -0.5547 
     35 CA         28.0021  -51.3928  -57.0082 C.3       7 UNK         0.0281 
     36 CB         29.3568  -51.9248  -57.5023 C.3       7 UNK        -0.1963 
     37 N          28.1577  -50.7851  -55.6853 N.am      7 UNK        -0.4444 
     38 C          27.1355  -50.4721  -54.8761 C.2       7 UNK         0.5104 
     39 O          25.9535  -50.6833  -55.1485 O.2       7 UNK        -0.5100 
     40 CA         27.4852  -49.8014  -53.5361 C.3       6 UNK         0.0396 
     41 CB         27.8648  -50.8536  -52.4826 C.3       6 UNK        -0.1801 
     42 N          28.5582  -48.8125  -53.6442 N.am      6 UNK        -0.4747 
     43 C          28.4936  -47.6880  -54.3734 C.2       6 UNK         0.5012 
     44 O          27.5171  -47.3557  -55.0450 O.2       6 UNK        -0.5003 
     45 CA         29.7664  -46.8206  -54.3939 C.3       5 UNK         0.0782 
     46 C46        29.9534  -46.0937  -53.0333 C.3       11 UNK        -0.0868 
     47 S47        28.9048  -44.6065  -52.8755 S.3       11 UNK        -0.2515 
     48 C48        30.1206  -43.2597  -53.0360 C.3       11 UNK         0.0199 
     49 N          30.9437  -47.6133  -54.7793 N.am      5 UNK        -0.4607 
     50 C          31.0553  -48.3421  -55.9021 C.2       4 UNK         0.5031 
     51 O          30.2161  -48.3482  -56.7997 O.2       4 UNK        -0.5119 
     52 CA         32.2578  -49.2925  -56.0243 C.3       4 UNK         0.0263 
     53 CB         33.4652  -48.6250  -56.6959 C.3       4 UNK        -0.1967 
     54 N          32.6504  -49.8610  -54.7367 N.am      4 UNK        -0.4237 
     55 C          31.9366  -50.7811  -54.0740 C.2       3 UNK         0.4908 
     56 O          30.9049  -51.2943  -54.5085 O.2       3 UNK        -0.5102 
     57 CA         32.4394  -51.1489  -52.6685 C.3       3 UNK         0.0241 
     58 CB         33.5988  -52.1550  -52.7471 C.3       3 UNK        -0.1971 
     59 N          32.8547  -49.9696  -51.9018 N.am      3 UNK        -0.4139 
     60 C          32.0139  -49.0050  -51.5033 C.2       2 UNK         0.5016 
     61 O          30.7987  -49.0370  -51.7003 O.2       2 UNK        -0.5319 
     62 CA         32.6287  -47.7859  -50.7944 C.3       2 UNK         0.0286 
     63 CB         32.7176  -48.0344  -49.2808 C.3       2 UNK        -0.1963 
     64 N          33.9471  -47.3777  -51.2960 N.am      2 UNK        -0.4790 
     65 C          34.2377  -46.9883  -52.5460 C.2       1 UNK         0.5024 
     66 O          33.4227  -47.0441  -53.4663 O.2       1 UNK        -0.4888 
     67 H67        37.8494  -44.5370  -49.3528 H         1 UNK         0.0892 
     68 H68        36.7526  -43.5103  -50.2784 H         1 UNK         0.0892 
     69 H69        36.1681  -44.3565  -48.8440 H         1 UNK         0.0892 
     70 H70        36.0343  -44.4842  -52.1619 H         1 UNK         0.3107 
     71 H71        36.3223  -47.3141  -52.6465 H         1 UNK         0.0773 
     72 H72        35.6327  -46.7143  -54.9751 H         1 UNK         0.0680 
     73 H73        37.0105  -45.8568  -54.3902 H         1 UNK         0.0680 
     74 H74        34.4060  -44.6011  -56.9221 H         1 UNK         0.0650 
     75 H75        33.7335  -45.8330  -55.8819 H         1 UNK         0.0650 
     76 H76        32.5408  -44.3245  -53.6673 H         1 UNK         0.1397 
     77 H77        29.1950  -42.3016  -55.4060 H         1 UNK         0.1363 
     78 H78        32.4234  -43.6447  -57.8945 H         1 UNK         0.1355 
     79 H79        29.6531  -41.3663  -57.8373 H         1 UNK         0.0707 
     80 H80        30.6855  -42.3248  -58.8628 H         1 UNK         0.0707 
     81 H81        27.2026  -41.5535  -58.0094 H         1 UNK         0.1034 
     82 H82        27.3527  -42.5815  -56.6163 H         1 UNK         0.1034 
     83 H83        25.0841  -42.6385  -57.4343 H         1 UNK         0.0482 
     84 H84        24.8661  -44.0416  -61.1825 H         1 UNK         0.3460 
     85 H85        25.2346  -45.0982  -59.8407 H         1 UNK         0.3460 
     86 H86        26.5948  -45.1046  -57.3864 H         1 UNK         0.2989 
     87 H87        24.8867  -46.7502  -55.7029 H         1 UNK         0.0559 
     88 H88        23.1530  -47.5153  -58.1110 H         1 UNK         0.0848 
     89 H89        22.5831  -47.1354  -56.4928 H         1 UNK         0.0848 
     90 H90        23.5412  -48.5816  -56.7611 H         1 UNK         0.0848 
     91 H91        26.5752  -47.7126  -56.7206 H         1 UNK         0.3144 
     92 H92        27.3203  -48.6743  -60.0536 H         1 UNK         0.0727 
     93 H93        28.7713  -46.6065  -58.3176 H         1 UNK         0.0790 
     94 H94        28.2826  -46.3792  -59.9907 H         1 UNK         0.0790 
     95 H95        29.5041  -47.5777  -59.5919 H         1 UNK         0.0790 
     96 H96        28.6980  -48.9562  -57.5300 H         1 UNK         0.3215 
     97 H97        27.3281  -52.2460  -56.9029 H         1 UNK         0.0863 
     98 H98        30.0764  -51.1206  -57.6523 H         1 UNK         0.0808 
     99 H99        29.2461  -52.4430  -58.4557 H         1 UNK         0.0808 
    100 H100       29.7880  -52.6341  -56.7955 H         1 UNK         0.0808 
    101 H101       29.1041  -50.6342  -55.3518 H         1 UNK         0.3118 
    102 H102       26.5929  -49.2783  -53.1861 H         1 UNK         0.0546 
    103 H103       28.0361  -50.3951  -51.5085 H         1 UNK         0.0828 
    104 H104       28.7706  -51.3943  -52.7592 H         1 UNK         0.0828 
    105 H105       27.0689  -51.5893  -52.3602 H         1 UNK         0.0828 
    106 H106       29.4016  -48.9909  -53.1041 H         1 UNK         0.3005 
    107 H107       29.6406  -46.0691  -55.1773 H         1 UNK         0.1257 
    108 H108       30.9945  -45.8103  -52.8924 H         1 UNK         0.0775 
    109 H109       29.7272  -46.7474  -52.1904 H         1 UNK         0.0775 
    110 H110       29.6140  -42.3026  -52.9038 H         1 UNK         0.0840 
    111 H111       30.8548  -43.3316  -52.2318 H         1 UNK         0.0840 
    112 H112       31.7284  -47.6035  -54.1351 H         1 UNK         0.2987 
    113 H113       31.9451  -50.1133  -56.6720 H         1 UNK         0.0785 
    114 H114       34.1627  -49.3731  -57.0727 H         1 UNK         0.0798 
    115 H115       33.1623  -48.0084  -57.5436 H         1 UNK         0.0798 
    116 H116       34.0118  -47.9952  -55.9995 H         1 UNK         0.0798 
    117 H117       33.4548  -49.4526  -54.2841 H         1 UNK         0.3079 
    118 H118       31.6116  -51.6228  -52.1360 H         1 UNK         0.0794 
    119 H119       33.9055  -52.4839  -51.7540 H         1 UNK         0.0786 
    120 H120       34.4721  -51.7330  -53.2459 H         1 UNK         0.0786 
    121 H121       33.3036  -53.0454  -53.3042 H         1 UNK         0.0786 
    122 H122       33.8369  -49.8701  -51.6896 H         1 UNK         0.3032 
    123 H123       31.9495  -46.9471  -50.9554 H         1 UNK         0.1094 
    124 H124       31.7460  -48.3176  -48.8730 H         1 UNK         0.0794 
    125 H125       33.4183  -48.8358  -49.0431 H         1 UNK         0.0794 
    126 H126       33.0406  -47.1385  -48.7501 H         1 UNK         0.0794 
    127 H127       34.6986  -47.3080  -50.6141 H         1 UNK         0.3016 
@<TRIPOS>BOND
     1    1    2 1    
     2    1   67 1    
     3    1   68 1    
     4    1   69 1    
     5    2    3 2    
     6    2    4 am   BACKBONE|DICT|INTERRES
     7    4    5 1    
     8    4   70 1    
     9    5    6 1    
    10    5   65 1    
    11    5   71 1    
    12    6    7 1    
    13    6   72 1    
    14    6   73 1    
    15    7    8 1    
    16    8    9 1    
    17    8   74 1    
    18    8   75 1    
    19    9   10 ar   
    20    9   14 ar   
    21   10   11 ar   
    22   10   76 1    
    23   11   12 ar   
    24   11   48 1    
    25   12   13 ar   
    26   12   77 1    
    27   13   14 ar   
    28   13   15 1    
    29   14   78 1    
    30   15   16 1    
    31   15   79 1    
    32   15   80 1    
    33   16   17 1    
    34   17   18 1    
    35   17   81 1    
    36   17   82 1    
    37   18   19 1    
    38   18   22 1    
    39   18   83 1    
    40   19   20 am   BACKBONE|DICT|INTERRES
    41   19   21 2    
    42   20   84 1    
    43   20   85 1    
    44   22   23 am   BACKBONE|DICT|INTERRES
    45   22   86 1    
    46   23   24 2    
    47   23   25 1    
    48   25   26 1    
    49   25   27 1    
    50   25   87 1    
    51   26   88 1    
    52   26   89 1    
    53   26   90 1    
    54   27   28 am   BACKBONE|DICT|INTERRES
    55   27   91 1    
    56   28   29 2    
    57   28   30 1    
    58   30   31 1    
    59   30   32 1    
    60   30   92 1    
    61   31   93 1    
    62   31   94 1    
    63   31   95 1    
    64   32   33 am   BACKBONE|DICT|INTERRES
    65   32   96 1    
    66   33   34 2    
    67   33   35 1    
    68   35   36 1    
    69   35   37 1    
    70   35   97 1    
    71   36   98 1    
    72   36   99 1    
    73   36  100 1    
    74   37   38 am   BACKBONE|DICT|INTERRES
    75   37  101 1    
    76   38   39 2    
    77   38   40 1    
    78   40   41 1    
    79   40   42 1    
    80   40  102 1    
    81   41  103 1    
    82   41  104 1    
    83   41  105 1    
    84   42   43 am   BACKBONE|DICT|INTERRES
    85   42  106 1    
    86   43   44 2    
    87   43   45 1    
    88   45   46 1    
    89   45   49 1    
    90   45  107 1    
    91   46   47 1    
    92   46  108 1    
    93   46  109 1    
    94   47   48 1    
    95   48  110 1    
    96   48  111 1    
    97   49   50 am   BACKBONE|DICT|INTERRES
    98   49  112 1    
    99   50   51 2    
   100   50   52 1    
   101   52   53 1    
   102   52   54 1    
   103   52  113 1    
   104   53  114 1    
   105   53  115 1    
   106   53  116 1    
   107   54   55 am   BACKBONE|DICT|INTERRES
   108   54  117 1    
   109   55   56 2    
   110   55   57 1    
   111   57   58 1    
   112   57   59 1    
   113   57  118 1    
   114   58  119 1    
   115   58  120 1    
   116   58  121 1    
   117   59   60 am   BACKBONE|DICT|INTERRES
   118   59  122 1    
   119   60   61 2    
   120   60   62 1    
   121   62   63 1    
   122   62   64 1    
   123   62  123 1    
   124   63  124 1    
   125   63  125 1    
   126   63  126 1    
   127   64   65 am   BACKBONE|DICT|INTERRES
   128   64  127 1    
   129   65   66 2    
@<TRIPOS>SUBSTRUCTURE
     1 UNK         1 GROUP             0       ****    0 ROOT    
