@<TRIPOS>MOLECULE
3R134
127   129    1
SMALL
USER_CHARGES


@<TRIPOS>ATOM
      1 CA         32.0371  -43.7508  -51.2947 C.3       0 UNK        -0.1968 
      2 C          32.9695  -44.5733  -52.1706 C.2       0 UNK         0.4852 
      3 O          33.0178  -45.7958  -52.0229 O.2       0 UNK        -0.5359 
      4 N          33.7057  -43.8965  -53.0666 N.am      1 UNK        -0.4300 
      5 CA         34.6792  -44.4268  -54.0331 C.3       1 UNK         0.0863 
      6 C6         34.0357  -44.8551  -55.3881 C.3       11 UNK        -0.0953 
      7 S7         32.8877  -46.2789  -55.3289 S.3       11 UNK        -0.2369 
      8 C8         31.3842  -45.6054  -56.0928 C.3       11 UNK         0.0226 
      9 C9         30.6219  -44.6862  -55.1520 C.ar      11 UNK        -0.0699 
     10 C10        29.8573  -45.2279  -54.1172 C.ar      11 UNK        -0.0804 
     11 C11        29.0834  -44.4072  -53.2909 C.ar      11 UNK        -0.0871 
     12 C12        29.0967  -43.0246  -53.5043 C.ar      11 UNK        -0.1008 
     13 C13        29.8864  -42.4652  -54.5137 C.ar      11 UNK        -0.0735 
     14 C14        30.6539  -43.3020  -55.3297 C.ar      11 UNK        -0.0945 
     15 C15        29.9188  -40.9558  -54.7075 C.3       11 UNK         0.0169 
     16 S16        28.6247  -40.3829  -55.8556 S.3       11 UNK        -0.2669 
     17 C17        29.2986  -40.9178  -57.4685 C.3       11 UNK        -0.0850 
     18 CA         28.4487  -42.0018  -58.1867 C.3       10 UNK         0.0855 
     19 C          29.1457  -42.4502  -59.5062 C.2       10 UNK         0.5543 
     20 N          29.5452  -43.7076  -59.6558 N.am      10 UNK        -0.7343 
     21 O          29.3272  -41.6374  -60.4092 O.2       10 UNK        -0.5027 
     22 N          28.0437  -43.1002  -57.2895 N.am      10 UNK        -0.4495 
     23 C          27.0537  -43.9588  -57.5549 C.2       10 UNK         0.4903 
     24 O          26.3721  -43.9259  -58.5828 O.2       10 UNK        -0.4860 
     25 CA         26.7375  -45.0046  -56.4765 C.3       9 UNK         0.0227 
     26 CB         25.6282  -44.4865  -55.5472 C.3       9 UNK        -0.1964 
     27 N          26.2932  -46.2427  -57.1160 N.am      9 UNK        -0.4231 
     28 C          27.1210  -47.1790  -57.5915 C.2       9 UNK         0.5014 
     29 O          28.3389  -47.1825  -57.4063 O.2       9 UNK        -0.5270 
     30 CA         26.4914  -48.2613  -58.4718 C.3       8 UNK         0.0284 
     31 CB         26.7363  -47.9404  -59.9603 C.3       8 UNK        -0.1977 
     32 N          27.0510  -49.5644  -58.1191 N.am      8 UNK        -0.4342 
     33 C          26.5285  -50.7436  -58.4825 C.2       8 UNK         0.5039 
     34 O          25.5372  -50.8643  -59.2041 O.2       8 UNK        -0.5547 
     35 CA         27.1948  -52.0042  -57.9155 C.3       7 UNK         0.0281 
     36 CB         28.5879  -52.2332  -58.5279 C.3       7 UNK        -0.1963 
     37 N          27.2865  -51.9072  -56.4596 N.am      7 UNK        -0.4444 
     38 C          26.3052  -52.2654  -55.6182 C.2       7 UNK         0.5104 
     39 O          25.2711  -52.8316  -55.9744 O.2       7 UNK        -0.5100 
     40 CA         26.4953  -51.9414  -54.1236 C.3       6 UNK         0.0396 
     41 CB         27.0518  -53.1641  -53.3772 C.3       6 UNK        -0.1801 
     42 N          27.3672  -50.7909  -53.8775 N.am      6 UNK        -0.4747 
     43 C          27.0789  -49.5202  -54.1991 C.2       6 UNK         0.5012 
     44 O          26.0060  -49.1646  -54.6868 O.2       6 UNK        -0.5003 
     45 CA         28.1977  -48.4811  -53.9670 C.3       5 UNK         0.0782 
     46 C46        28.0477  -47.7941  -52.5819 C.3       11 UNK        -0.0868 
     47 S47        27.0653  -46.2592  -52.6657 S.3       11 UNK        -0.2515 
     48 C48        28.2681  -44.9911  -52.1400 C.3       11 UNK         0.0199 
     49 N          29.5544  -49.0208  -54.1413 N.am      5 UNK        -0.4607 
     50 C          30.0379  -49.6459  -55.2248 C.2       4 UNK         0.5031 
     51 O          29.3529  -49.9080  -56.2132 O.2       4 UNK        -0.5119 
     52 CA         31.5198  -50.0714  -55.2016 C.3       4 UNK         0.0263 
     53 CB         32.2167  -49.7377  -56.5323 C.3       4 UNK        -0.1967 
     54 N          32.2723  -49.4733  -54.0907 N.am      4 UNK        -0.4237 
     55 C          32.3573  -49.9919  -52.8566 C.2       3 UNK         0.4908 
     56 O          31.8139  -51.0484  -52.5308 O.2       3 UNK        -0.5102 
     57 CA         33.1267  -49.1701  -51.8031 C.3       3 UNK         0.0241 
     58 CB         33.5707  -50.0098  -50.5852 C.3       3 UNK        -0.1971 
     59 N          34.2459  -48.3969  -52.3565 N.am      3 UNK        -0.4139 
     60 C          35.3764  -48.8731  -52.9055 C.2       2 UNK         0.5016 
     61 O          35.6240  -50.0742  -53.0243 O.2       2 UNK        -0.5319 
     62 CA         36.3935  -47.8353  -53.4235 C.3       2 UNK         0.0286 
     63 CB         37.3109  -48.4090  -54.5201 C.3       2 UNK        -0.1963 
     64 N          35.6993  -46.6649  -53.9574 N.am      2 UNK        -0.4790 
     65 C          35.6595  -45.4481  -53.4049 C.2       1 UNK         0.5024 
     66 O          36.3376  -45.1165  -52.4302 O.2       1 UNK        -0.4888 
     67 H67        32.5167  -43.5243  -50.3431 H         1 UNK         0.0892 
     68 H68        31.7567  -42.8137  -51.7755 H         1 UNK         0.0892 
     69 H69        31.1240  -44.3075  -51.0910 H         1 UNK         0.0892 
     70 H70        33.6118  -42.8914  -53.0860 H         1 UNK         0.3107 
     71 H71        35.3143  -43.5713  -54.2685 H         1 UNK         0.0773 
     72 H72        34.8165  -45.0853  -56.1151 H         1 UNK         0.0680 
     73 H73        33.5094  -43.9983  -55.8094 H         1 UNK         0.0680 
     74 H74        30.7388  -46.4385  -56.3748 H         1 UNK         0.0650 
     75 H75        31.6403  -45.0937  -57.0218 H         1 UNK         0.0650 
     76 H76        29.8725  -46.2940  -53.9649 H         1 UNK         0.1397 
     77 H77        28.5069  -42.3756  -52.8712 H         1 UNK         0.1363 
     78 H78        31.2699  -42.8815  -56.1115 H         1 UNK         0.1355 
     79 H79        29.7742  -40.4603  -53.7462 H         1 UNK         0.0707 
     80 H80        30.8994  -40.6358  -55.0637 H         1 UNK         0.0707 
     81 H81        30.3283  -41.2528  -57.3464 H         1 UNK         0.1034 
     82 H82        29.3644  -40.0297  -58.1002 H         1 UNK         0.1034 
     83 H83        27.5247  -41.5113  -58.4993 H         1 UNK         0.0482 
     84 H84        29.3824  -44.3840  -58.9274 H         1 UNK         0.3460 
     85 H85        29.9926  -43.9850  -60.5149 H         1 UNK         0.3460 
     86 H86        28.5442  -43.1674  -56.4133 H         1 UNK         0.2989 
     87 H87        27.6308  -45.2014  -55.8811 H         1 UNK         0.0559 
     88 H88        24.7428  -44.1757  -56.1035 H         1 UNK         0.0848 
     89 H89        25.9750  -43.6250  -54.9749 H         1 UNK         0.0848 
     90 H90        25.3195  -45.2476  -54.8312 H         1 UNK         0.0848 
     91 H91        25.3155  -46.2876  -57.3651 H         1 UNK         0.3144 
     92 H92        25.4162  -48.2869  -58.2816 H         1 UNK         0.0727 
     93 H93        26.2246  -48.6448  -60.6158 H         1 UNK         0.0790 
     94 H94        27.7990  -47.9666  -60.2045 H         1 UNK         0.0790 
     95 H95        26.3688  -46.9441  -60.2107 H         1 UNK         0.0790 
     96 H96        27.8711  -49.5369  -57.5147 H         1 UNK         0.3215 
     97 H97        26.5745  -52.8633  -58.1817 H         1 UNK         0.0863 
     98 H98        29.2666  -51.4011  -58.3416 H         1 UNK         0.0808 
     99 H99        28.5176  -52.3552  -59.6094 H         1 UNK         0.0808 
    100 H100       29.0505  -53.1364  -58.1299 H         1 UNK         0.0808 
    101 H101       28.0742  -51.3795  -56.0973 H         1 UNK         0.3118 
    102 H102       25.5113  -51.7092  -53.7108 H         1 UNK         0.0546 
    103 H103       27.1147  -52.9811  -52.3044 H         1 UNK         0.0828 
    104 H104       28.0467  -53.4366  -53.7318 H         1 UNK         0.0828 
    105 H105       26.4073  -54.0331  -53.5177 H         1 UNK         0.0828 
    106 H106       28.2760  -50.9855  -53.4814 H         1 UNK         0.3005 
    107 H107       28.0805  -47.7309  -54.7520 H         1 UNK         0.1257 
    108 H108       29.0254  -47.5518  -52.1635 H         1 UNK         0.0775 
    109 H109       27.5924  -48.4586  -51.8444 H         1 UNK         0.0775 
    110 H110       27.7081  -44.1987  -51.6414 H         1 UNK         0.0840 
    111 H111       28.9395  -45.3970  -51.3828 H         1 UNK         0.0840 
    112 H112       30.1886  -48.8849  -53.3695 H         1 UNK         0.2987 
    113 H113       31.5322  -51.1578  -55.0911 H         1 UNK         0.0785 
    114 H114       33.2763  -49.9923  -56.5040 H         1 UNK         0.0798 
    115 H115       31.7723  -50.3001  -57.3546 H         1 UNK         0.0798 
    116 H116       32.1284  -48.6816  -56.7850 H         1 UNK         0.0798 
    117 H117       32.7125  -48.5810  -54.2726 H         1 UNK         0.3079 
    118 H118       32.4148  -48.4292  -51.4363 H         1 UNK         0.0794 
    119 H119       34.0964  -49.3979  -49.8523 H         1 UNK         0.0786 
    120 H120       34.2295  -50.8291  -50.8742 H         1 UNK         0.0786 
    121 H121       32.7107  -50.4501  -50.0790 H         1 UNK         0.0786 
    122 H122       34.1069  -47.3883  -52.3263 H         1 UNK         0.3032 
    123 H123       37.0156  -47.5544  -52.5707 H         1 UNK         0.1094 
    124 H124       37.8970  -49.2483  -54.1434 H         1 UNK         0.0794 
    125 H125       36.7392  -48.7667  -55.3773 H         1 UNK         0.0794 
    126 H126       38.0172  -47.6592  -54.8771 H         1 UNK         0.0794 
    127 H127       35.0648  -46.8360  -54.7281 H         1 UNK         0.3016 
@<TRIPOS>BOND
     1    1    2 1    
     2    1   67 1    
     3    1   68 1    
     4    1   69 1    
     5    2    3 2    
     6    2    4 am   BACKBONE|DICT|INTERRES
     7    4    5 1    
     8    4   70 1    
     9    5    6 1    
    10    5   65 1    
    11    5   71 1    
    12    6    7 1    
    13    6   72 1    
    14    6   73 1    
    15    7    8 1    
    16    8    9 1    
    17    8   74 1    
    18    8   75 1    
    19    9   10 ar   
    20    9   14 ar   
    21   10   11 ar   
    22   10   76 1    
    23   11   12 ar   
    24   11   48 1    
    25   12   13 ar   
    26   12   77 1    
    27   13   14 ar   
    28   13   15 1    
    29   14   78 1    
    30   15   16 1    
    31   15   79 1    
    32   15   80 1    
    33   16   17 1    
    34   17   18 1    
    35   17   81 1    
    36   17   82 1    
    37   18   19 1    
    38   18   22 1    
    39   18   83 1    
    40   19   20 am   BACKBONE|DICT|INTERRES
    41   19   21 2    
    42   20   84 1    
    43   20   85 1    
    44   22   23 am   BACKBONE|DICT|INTERRES
    45   22   86 1    
    46   23   24 2    
    47   23   25 1    
    48   25   26 1    
    49   25   27 1    
    50   25   87 1    
    51   26   88 1    
    52   26   89 1    
    53   26   90 1    
    54   27   28 am   BACKBONE|DICT|INTERRES
    55   27   91 1    
    56   28   29 2    
    57   28   30 1    
    58   30   31 1    
    59   30   32 1    
    60   30   92 1    
    61   31   93 1    
    62   31   94 1    
    63   31   95 1    
    64   32   33 am   BACKBONE|DICT|INTERRES
    65   32   96 1    
    66   33   34 2    
    67   33   35 1    
    68   35   36 1    
    69   35   37 1    
    70   35   97 1    
    71   36   98 1    
    72   36   99 1    
    73   36  100 1    
    74   37   38 am   BACKBONE|DICT|INTERRES
    75   37  101 1    
    76   38   39 2    
    77   38   40 1    
    78   40   41 1    
    79   40   42 1    
    80   40  102 1    
    81   41  103 1    
    82   41  104 1    
    83   41  105 1    
    84   42   43 am   BACKBONE|DICT|INTERRES
    85   42  106 1    
    86   43   44 2    
    87   43   45 1    
    88   45   46 1    
    89   45   49 1    
    90   45  107 1    
    91   46   47 1    
    92   46  108 1    
    93   46  109 1    
    94   47   48 1    
    95   48  110 1    
    96   48  111 1    
    97   49   50 am   BACKBONE|DICT|INTERRES
    98   49  112 1    
    99   50   51 2    
   100   50   52 1    
   101   52   53 1    
   102   52   54 1    
   103   52  113 1    
   104   53  114 1    
   105   53  115 1    
   106   53  116 1    
   107   54   55 am   BACKBONE|DICT|INTERRES
   108   54  117 1    
   109   55   56 2    
   110   55   57 1    
   111   57   58 1    
   112   57   59 1    
   113   57  118 1    
   114   58  119 1    
   115   58  120 1    
   116   58  121 1    
   117   59   60 am   BACKBONE|DICT|INTERRES
   118   59  122 1    
   119   60   61 2    
   120   60   62 1    
   121   62   63 1    
   122   62   64 1    
   123   62  123 1    
   124   63  124 1    
   125   63  125 1    
   126   63  126 1    
   127   64   65 am   BACKBONE|DICT|INTERRES
   128   64  127 1    
   129   65   66 2    
@<TRIPOS>SUBSTRUCTURE
     1 UNK         1 GROUP             0       ****    0 ROOT    
