@<TRIPOS>MOLECULE
3R134
127   129    1
SMALL
USER_CHARGES


@<TRIPOS>ATOM
      1 CA         37.7184  -46.7531  -53.1507 C.3       0 UNK        -0.1968 
      2 C          36.3321  -46.7947  -53.7748 C.2       0 UNK         0.4852 
      3 O          35.7932  -47.8806  -53.9956 O.2       0 UNK        -0.5359 
      4 N          35.7396  -45.6215  -54.0434 N.am      1 UNK        -0.4300 
      5 CA         34.4199  -45.4541  -54.6690 C.3       1 UNK         0.0863 
      6 C6         34.0977  -43.9816  -55.0388 C.3       11 UNK        -0.0953 
      7 S7         34.5587  -42.7230  -53.7941 S.3       11 UNK        -0.2369 
      8 C8         33.1913  -42.7607  -52.5820 C.3       11 UNK         0.0226 
      9 C9         31.7889  -42.5816  -53.1602 C.ar      11 UNK        -0.0699 
     10 C10        30.7266  -43.2999  -52.6017 C.ar      11 UNK        -0.0804 
     11 C11        29.4205  -43.1201  -53.0659 C.ar      11 UNK        -0.0871 
     12 C12        29.1787  -42.2148  -54.1015 C.ar      11 UNK        -0.1008 
     13 C13        30.2316  -41.5053  -54.6882 C.ar      11 UNK        -0.0735 
     14 C14        31.5310  -41.6817  -54.2013 C.ar      11 UNK        -0.0945 
     15 C15        29.9746  -40.5334  -55.8355 C.3       11 UNK         0.0169 
     16 S16        28.8990  -41.2169  -57.1423 S.3       11 UNK        -0.2669 
     17 C17        29.8829  -42.6370  -57.7360 C.3       11 UNK        -0.0850 
     18 CA         29.0223  -43.6526  -58.5351 C.3       10 UNK         0.0855 
     19 C          29.9082  -44.7370  -59.2202 C.2       10 UNK         0.5543 
     20 N          29.6489  -46.0297  -59.0633 N.am      10 UNK        -0.7343 
     21 O          30.8529  -44.3941  -59.9269 O.2       10 UNK        -0.5027 
     22 N          27.9218  -44.1917  -57.7194 N.am      10 UNK        -0.4495 
     23 C          26.7675  -44.6586  -58.2065 C.2       10 UNK         0.4903 
     24 O          26.4416  -44.6147  -59.3947 O.2       10 UNK        -0.4860 
     25 CA         25.8144  -45.2963  -57.1804 C.3       9 UNK         0.0227 
     26 CB         24.5673  -44.4208  -56.9783 C.3       9 UNK        -0.1964 
     27 N          25.4071  -46.6591  -57.5419 N.am      9 UNK        -0.4231 
     28 C          26.2440  -47.6696  -57.8157 C.2       9 UNK         0.5014 
     29 O          27.4693  -47.5548  -57.8656 O.2       9 UNK        -0.5270 
     30 CA         25.6139  -49.0354  -58.0981 C.3       8 UNK         0.0284 
     31 CB         25.5045  -49.2810  -59.6147 C.3       8 UNK        -0.1977 
     32 N          26.4346  -50.0700  -57.4694 N.am      8 UNK        -0.4342 
     33 C          26.0158  -51.3055  -57.1661 C.2       8 UNK         0.5039 
     34 O          24.8833  -51.7235  -57.4132 O.2       8 UNK        -0.5547 
     35 CA         27.0120  -52.2308  -56.4515 C.3       7 UNK         0.0281 
     36 CB         28.1209  -52.7026  -57.4079 C.3       7 UNK        -0.1963 
     37 N          27.6003  -51.5628  -55.2905 N.am      7 UNK        -0.4444 
     38 C          27.0997  -51.6222  -54.0480 C.2       7 UNK         0.5104 
     39 O          26.1367  -52.3228  -53.7334 O.2       7 UNK        -0.5100 
     40 CA         27.7738  -50.7616  -52.9590 C.3       6 UNK         0.0396 
     41 CB         28.7912  -51.6000  -52.1694 C.3       6 UNK        -0.1801 
     42 N          28.4383  -49.5593  -53.4659 N.am      6 UNK        -0.4747 
     43 C          27.8279  -48.5471  -54.1006 C.2       6 UNK         0.5012 
     44 O          26.6097  -48.4811  -54.2680 O.2       6 UNK        -0.5003 
     45 CA         28.7410  -47.4548  -54.6958 C.3       5 UNK         0.0782 
     46 C46        28.9919  -46.3078  -53.6875 C.3       11 UNK        -0.0868 
     47 S47        27.5932  -45.1468  -53.5802 S.3       11 UNK        -0.2515 
     48 C48        28.2655  -43.8930  -52.4443 C.3       11 UNK         0.0199 
     49 N          30.0031  -47.9791  -55.2351 N.am      5 UNK        -0.4607 
     50 C          30.1389  -48.9561  -56.1452 C.2       4 UNK         0.5031 
     51 O          29.2010  -49.5881  -56.6274 O.2       4 UNK        -0.5119 
     52 CA         31.5734  -49.3418  -56.5319 C.3       4 UNK         0.0263 
     53 CB         32.2004  -48.2970  -57.4695 C.3       4 UNK        -0.1967 
     54 N          32.4044  -49.5181  -55.3413 N.am      4 UNK        -0.4237 
     55 C          32.3222  -50.5743  -54.5185 C.2       3 UNK         0.4908 
     56 O          31.6235  -51.5636  -54.7385 O.2       3 UNK        -0.5102 
     57 CA         33.1342  -50.5053  -53.2146 C.3       3 UNK         0.0241 
     58 CB         34.5457  -51.0769  -53.4216 C.3       3 UNK        -0.1971 
     59 N          33.2240  -49.1434  -52.6813 N.am      3 UNK        -0.4139 
     60 C          32.1861  -48.4750  -52.1537 C.2       2 UNK         0.5016 
     61 O          31.0570  -48.9504  -52.0314 O.2       2 UNK        -0.5319 
     62 CA         32.4317  -47.0133  -51.7365 C.3       2 UNK         0.0286 
     63 CB         32.8806  -46.9343  -50.2697 C.3       2 UNK        -0.1963 
     64 N          33.4074  -46.3205  -52.5827 N.am      2 UNK        -0.4790 
     65 C          33.2566  -46.1084  -53.8985 C.2       1 UNK         0.5024 
     66 O          32.2566  -46.4547  -54.5238 O.2       1 UNK        -0.4888 
     67 H67        38.4337  -47.2627  -53.7955 H         1 UNK         0.0892 
     68 H68        38.0668  -45.7318  -52.9976 H         1 UNK         0.0892 
     69 H69        37.7101  -47.2579  -52.1851 H         1 UNK         0.0892 
     70 H70        36.2184  -44.7587  -53.8239 H         1 UNK         0.3107 
     71 H71        34.4697  -46.0059  -55.6105 H         1 UNK         0.0773 
     72 H72        33.0508  -43.8581  -55.3232 H         1 UNK         0.0680 
     73 H73        34.6576  -43.7280  -55.9400 H         1 UNK         0.0680 
     74 H74        33.3612  -41.9613  -51.8600 H         1 UNK         0.0650 
     75 H75        33.2563  -43.6890  -52.0157 H         1 UNK         0.0650 
     76 H76        30.9150  -43.9917  -51.7923 H         1 UNK         0.1397 
     77 H77        28.1684  -42.0741  -54.4610 H         1 UNK         0.1363 
     78 H78        32.3448  -41.1157  -54.6331 H         1 UNK         0.1355 
     79 H79        29.5076  -39.6341  -55.4321 H         1 UNK         0.0707 
     80 H80        30.9138  -40.2164  -56.2919 H         1 UNK         0.0707 
     81 H81        30.3618  -43.1364  -56.8919 H         1 UNK         0.1034 
     82 H82        30.6912  -42.2412  -58.3539 H         1 UNK         0.1034 
     83 H83        28.5720  -43.0987  -59.3612 H         1 UNK         0.0482 
     84 H84        28.8493  -46.3574  -58.5292 H         1 UNK         0.3460 
     85 H85        30.2324  -46.6988  -59.5363 H         1 UNK         0.3460 
     86 H86        28.1043  -44.2665  -56.7297 H         1 UNK         0.2989 
     87 H87        26.3313  -45.3680  -56.2228 H         1 UNK         0.0559 
     88 H88        23.9739  -44.3470  -57.8907 H         1 UNK         0.0848 
     89 H89        24.8468  -43.4066  -56.6891 H         1 UNK         0.0848 
     90 H90        23.9267  -44.8148  -56.1891 H         1 UNK         0.0848 
     91 H91        24.4137  -46.8382  -57.5628 H         1 UNK         0.3144 
     92 H92        24.6167  -49.0598  -57.6533 H         1 UNK         0.0727 
     93 H93        25.0151  -50.2303  -59.8326 H         1 UNK         0.0790 
     94 H94        26.4869  -49.2937  -60.0887 H         1 UNK         0.0790 
     95 H95        24.9189  -48.4971  -60.0967 H         1 UNK         0.0790 
     96 H96        27.3826  -49.7790  -57.2274 H         1 UNK         0.3215 
     97 H97        26.4666  -53.1184  -56.1228 H         1 UNK         0.0863 
     98 H98        28.7011  -51.8723  -57.8106 H         1 UNK         0.0808 
     99 H99        27.6964  -53.2416  -58.2559 H         1 UNK         0.0808 
    100 H100       28.8127  -53.3797  -56.9066 H         1 UNK         0.0808 
    101 H101       28.3572  -50.9135  -55.4842 H         1 UNK         0.3118 
    102 H102       26.9920  -50.4368  -52.2696 H         1 UNK         0.0546 
    103 H103       29.2132  -51.0340  -51.3387 H         1 UNK         0.0828 
    104 H104       29.6161  -51.9312  -52.8015 H         1 UNK         0.0828 
    105 H105       28.3229  -52.4911  -51.7493 H         1 UNK         0.0828 
    106 H106       29.4395  -49.4946  -53.3131 H         1 UNK         0.3005 
    107 H107       28.2119  -47.0354  -55.5502 H         1 UNK         0.1257 
    108 H108       29.8541  -45.7217  -54.0046 H         1 UNK         0.0775 
    109 H109       29.2312  -46.6914  -52.6941 H         1 UNK         0.0775 
    110 H110       27.4698  -43.1955  -52.1787 H         1 UNK         0.0840 
    111 H111       28.5708  -44.3750  -51.5142 H         1 UNK         0.0840 
    112 H112       30.8453  -47.5027  -54.9198 H         1 UNK         0.2987 
    113 H113       31.5329  -50.2924  -57.0687 H         1 UNK         0.0785 
    114 H114       33.2177  -48.5727  -57.7474 H         1 UNK         0.0798 
    115 H115       31.6246  -48.2160  -58.3920 H         1 UNK         0.0798 
    116 H116       32.2319  -47.3038  -57.0214 H         1 UNK         0.0798 
    117 H117       32.9854  -48.7382  -55.0686 H         1 UNK         0.3079 
    118 H118       32.6221  -51.1240  -52.4743 H         1 UNK         0.0794 
    119 H119       35.1155  -51.0745  -52.4923 H         1 UNK         0.0786 
    120 H120       35.1090  -50.5076  -54.1620 H         1 UNK         0.0786 
    121 H121       34.4998  -52.1092  -53.7711 H         1 UNK         0.0786 
    122 H122       34.1093  -48.6634  -52.7990 H         1 UNK         0.3032 
    123 H123       31.4801  -46.4873  -51.8301 H         1 UNK         0.1094 
    124 H124       32.1590  -47.4252  -49.6149 H         1 UNK         0.0794 
    125 H125       33.8448  -47.4202  -50.1146 H         1 UNK         0.0794 
    126 H126       32.9666  -45.9001  -49.9358 H         1 UNK         0.0794 
    127 H127       34.2681  -46.0233  -52.1464 H         1 UNK         0.3016 
@<TRIPOS>BOND
     1    1    2 1    
     2    1   67 1    
     3    1   68 1    
     4    1   69 1    
     5    2    3 2    
     6    2    4 am   BACKBONE|DICT|INTERRES
     7    4    5 1    
     8    4   70 1    
     9    5    6 1    
    10    5   65 1    
    11    5   71 1    
    12    6    7 1    
    13    6   72 1    
    14    6   73 1    
    15    7    8 1    
    16    8    9 1    
    17    8   74 1    
    18    8   75 1    
    19    9   10 ar   
    20    9   14 ar   
    21   10   11 ar   
    22   10   76 1    
    23   11   12 ar   
    24   11   48 1    
    25   12   13 ar   
    26   12   77 1    
    27   13   14 ar   
    28   13   15 1    
    29   14   78 1    
    30   15   16 1    
    31   15   79 1    
    32   15   80 1    
    33   16   17 1    
    34   17   18 1    
    35   17   81 1    
    36   17   82 1    
    37   18   19 1    
    38   18   22 1    
    39   18   83 1    
    40   19   20 am   BACKBONE|DICT|INTERRES
    41   19   21 2    
    42   20   84 1    
    43   20   85 1    
    44   22   23 am   BACKBONE|DICT|INTERRES
    45   22   86 1    
    46   23   24 2    
    47   23   25 1    
    48   25   26 1    
    49   25   27 1    
    50   25   87 1    
    51   26   88 1    
    52   26   89 1    
    53   26   90 1    
    54   27   28 am   BACKBONE|DICT|INTERRES
    55   27   91 1    
    56   28   29 2    
    57   28   30 1    
    58   30   31 1    
    59   30   32 1    
    60   30   92 1    
    61   31   93 1    
    62   31   94 1    
    63   31   95 1    
    64   32   33 am   BACKBONE|DICT|INTERRES
    65   32   96 1    
    66   33   34 2    
    67   33   35 1    
    68   35   36 1    
    69   35   37 1    
    70   35   97 1    
    71   36   98 1    
    72   36   99 1    
    73   36  100 1    
    74   37   38 am   BACKBONE|DICT|INTERRES
    75   37  101 1    
    76   38   39 2    
    77   38   40 1    
    78   40   41 1    
    79   40   42 1    
    80   40  102 1    
    81   41  103 1    
    82   41  104 1    
    83   41  105 1    
    84   42   43 am   BACKBONE|DICT|INTERRES
    85   42  106 1    
    86   43   44 2    
    87   43   45 1    
    88   45   46 1    
    89   45   49 1    
    90   45  107 1    
    91   46   47 1    
    92   46  108 1    
    93   46  109 1    
    94   47   48 1    
    95   48  110 1    
    96   48  111 1    
    97   49   50 am   BACKBONE|DICT|INTERRES
    98   49  112 1    
    99   50   51 2    
   100   50   52 1    
   101   52   53 1    
   102   52   54 1    
   103   52  113 1    
   104   53  114 1    
   105   53  115 1    
   106   53  116 1    
   107   54   55 am   BACKBONE|DICT|INTERRES
   108   54  117 1    
   109   55   56 2    
   110   55   57 1    
   111   57   58 1    
   112   57   59 1    
   113   57  118 1    
   114   58  119 1    
   115   58  120 1    
   116   58  121 1    
   117   59   60 am   BACKBONE|DICT|INTERRES
   118   59  122 1    
   119   60   61 2    
   120   60   62 1    
   121   62   63 1    
   122   62   64 1    
   123   62  123 1    
   124   63  124 1    
   125   63  125 1    
   126   63  126 1    
   127   64   65 am   BACKBONE|DICT|INTERRES
   128   64  127 1    
   129   65   66 2    
@<TRIPOS>SUBSTRUCTURE
     1 UNK         1 GROUP             0       ****    0 ROOT    
