@<TRIPOS>MOLECULE
3R134
127   129    1
SMALL
USER_CHARGES


@<TRIPOS>ATOM
      1 CA         28.2073  -46.1929  -50.9095 C.3       0 UNK        -0.1968 
      2 C          29.7217  -46.0736  -50.8197 C.2       0 UNK         0.4852 
      3 O          30.2870  -46.2612  -49.7415 O.2       0 UNK        -0.5359 
      4 N          30.3865  -45.7670  -51.9412 N.am      1 UNK        -0.4300 
      5 CA         31.8235  -45.4785  -52.0399 C.3       1 UNK         0.0863 
      6 C6         32.1362  -44.5754  -53.2599 C.3       11 UNK        -0.0953 
      7 S7         31.2420  -42.9841  -53.2073 S.3       11 UNK        -0.2369 
      8 C8         32.2475  -41.9390  -54.3113 C.3       11 UNK         0.0226 
      9 C9         32.2045  -42.4381  -55.7478 C.ar      11 UNK        -0.0699 
     10 C10        33.1574  -43.3568  -56.1924 C.ar      11 UNK        -0.0804 
     11 C11        33.0841  -43.8861  -57.4822 C.ar      11 UNK        -0.0871 
     12 C12        32.0738  -43.4579  -58.3477 C.ar      11 UNK        -0.1008 
     13 C13        31.1197  -42.5307  -57.9191 C.ar      11 UNK        -0.0735 
     14 C14        31.1966  -42.0145  -56.6201 C.ar      11 UNK        -0.0945 
     15 C15        29.9954  -42.1166  -58.8577 C.3       11 UNK         0.0169 
     16 S16        28.5302  -43.1888  -58.6728 S.3       11 UNK        -0.2669 
     17 C17        27.7725  -42.5057  -57.1595 C.3       11 UNK        -0.0850 
     18 CA         27.9442  -43.4412  -55.9250 C.3       10 UNK         0.0855 
     19 C          27.7748  -42.6876  -54.5674 C.2       10 UNK         0.5543 
     20 N          27.3079  -43.3367  -53.5075 N.am      10 UNK        -0.7343 
     21 O          28.0905  -41.5060  -54.4607 O.2       10 UNK        -0.5027 
     22 N          27.1601  -44.6890  -56.0267 N.am      10 UNK        -0.4495 
     23 C          25.8206  -44.7745  -56.0195 C.2       10 UNK         0.4903 
     24 O          25.0710  -43.7968  -56.0405 O.2       10 UNK        -0.4860 
     25 CA         25.2177  -46.1871  -55.9049 C.3       9 UNK         0.0227 
     26 CB         23.6937  -46.2261  -56.1534 C.3       9 UNK        -0.1964 
     27 N          25.9135  -47.1906  -56.7133 N.am      9 UNK        -0.4231 
     28 C          25.9740  -47.2771  -58.0512 C.2       9 UNK         0.5014 
     29 O          25.4437  -46.4712  -58.8167 O.2       9 UNK        -0.5270 
     30 CA         26.7548  -48.4662  -58.6532 C.3       8 UNK         0.0284 
     31 CB         28.0058  -47.9600  -59.3893 C.3       8 UNK        -0.1977 
     32 N          27.1482  -49.4808  -57.6673 N.am      8 UNK        -0.4342 
     33 C          26.3071  -50.3275  -57.0550 C.2       8 UNK         0.5039 
     34 O          25.1117  -50.4259  -57.3324 O.2       8 UNK        -0.5547 
     35 CA         26.8835  -51.1582  -55.8950 C.3       7 UNK         0.0281 
     36 CB         27.4611  -52.4906  -56.3994 C.3       7 UNK        -0.1963 
     37 N          27.9015  -50.4229  -55.1355 N.am      7 UNK        -0.4444 
     38 C          27.6426  -49.3688  -54.3470 C.2       7 UNK         0.5104 
     39 O          26.5124  -48.9296  -54.1412 O.2       7 UNK        -0.5100 
     40 CA         28.8503  -48.6460  -53.7302 C.3       6 UNK         0.0396 
     41 CB         29.3238  -49.3728  -52.4616 C.3       6 UNK        -0.1801 
     42 N          29.9534  -48.5149  -54.6855 N.am      6 UNK        -0.4747 
     43 C          29.9248  -47.6943  -55.7496 C.2       6 UNK         0.5012 
     44 O          29.0179  -46.8836  -55.9417 O.2       6 UNK        -0.5003 
     45 CA         31.0517  -47.8143  -56.8028 C.3       5 UNK         0.0782 
     46 C46        32.0881  -46.6829  -56.6488 C.3       11 UNK        -0.0868 
     47 S47        33.1873  -46.5937  -58.1096 S.3       11 UNK        -0.2515 
     48 C48        34.0399  -44.9928  -57.8990 C.3       11 UNK         0.0199 
     49 N          31.6969  -49.1260  -56.8125 N.am      5 UNK        -0.4607 
     50 C          31.0967  -50.2875  -57.0937 C.2       4 UNK         0.5031 
     51 O          29.9340  -50.3685  -57.4877 O.2       4 UNK        -0.5119 
     52 CA         31.9055  -51.5707  -56.8162 C.3       4 UNK         0.0263 
     53 CB         32.4921  -52.1242  -58.1235 C.3       4 UNK        -0.1967 
     54 N          32.9856  -51.3943  -55.8305 N.am      4 UNK        -0.4237 
     55 C          32.8188  -50.9584  -54.5717 C.2       3 UNK         0.4908 
     56 O          31.7096  -50.7180  -54.0944 O.2       3 UNK        -0.5102 
     57 CA         34.0880  -50.6955  -53.7395 C.3       3 UNK         0.0241 
     58 CB         35.2758  -50.2111  -54.5962 C.3       3 UNK        -0.1971 
     59 N          33.8373  -49.6941  -52.7002 N.am      3 UNK        -0.4139 
     60 C          33.3951  -49.9392  -51.4632 C.2       2 UNK         0.5016 
     61 O          33.1237  -51.0652  -51.0432 O.2       2 UNK        -0.5319 
     62 CA         33.2880  -48.7385  -50.5022 C.3       2 UNK         0.0286 
     63 CB         34.6888  -48.2948  -50.0367 C.3       2 UNK        -0.1963 
     64 N          32.5070  -47.5771  -50.9602 N.am      2 UNK        -0.4790 
     65 C          32.7020  -46.7548  -52.0013 C.2       1 UNK         0.5024 
     66 O          33.5431  -46.9524  -52.8803 O.2       1 UNK        -0.4888 
     67 H67        27.8922  -47.2062  -50.6644 H         1 UNK         0.0892 
     68 H68        27.7384  -45.5121  -50.1997 H         1 UNK         0.0892 
     69 H69        27.8345  -45.9481  -51.9029 H         1 UNK         0.0892 
     70 H70        29.8707  -45.6322  -52.7979 H         1 UNK         0.3107 
     71 H71        32.1043  -44.9082  -51.1516 H         1 UNK         0.0773 
     72 H72        33.2052  -44.3600  -53.3033 H         1 UNK         0.0680 
     73 H73        31.8784  -45.0845  -54.1885 H         1 UNK         0.0680 
     74 H74        33.2755  -41.9049  -53.9469 H         1 UNK         0.0650 
     75 H75        31.8717  -40.9159  -54.2638 H         1 UNK         0.0650 
     76 H76        33.9278  -43.6984  -55.5149 H         1 UNK         0.1397 
     77 H77        32.0039  -43.8834  -59.3397 H         1 UNK         0.1363 
     78 H78        30.4556  -41.3074  -56.2738 H         1 UNK         0.1355 
     79 H79        30.3396  -42.1776  -59.8913 H         1 UNK         0.0707 
     80 H80        29.7246  -41.0724  -58.6954 H         1 UNK         0.0707 
     81 H81        28.2068  -41.5227  -56.9756 H         1 UNK         0.1034 
     82 H82        26.7181  -42.3104  -57.3571 H         1 UNK         0.1034 
     83 H83        28.9853  -43.7661  -55.9084 H         1 UNK         0.0482 
     84 H84        27.0220  -44.2965  -53.5848 H         1 UNK         0.3460 
     85 H85        27.2079  -42.8427  -52.6356 H         1 UNK         0.3460 
     86 H86        27.7110  -45.5446  -56.0199 H         1 UNK         0.2989 
     87 H87        25.3772  -46.4879  -54.8686 H         1 UNK         0.0559 
     88 H88        23.1651  -45.5933  -55.4395 H         1 UNK         0.0848 
     89 H89        23.2993  -47.2363  -56.0421 H         1 UNK         0.0848 
     90 H90        23.4349  -45.8720  -57.1518 H         1 UNK         0.0848 
     91 H91        26.3957  -47.9021  -56.1800 H         1 UNK         0.3144 
     92 H92        26.1028  -48.9496  -59.3836 H         1 UNK         0.0727 
     93 H93        28.5982  -47.2988  -58.7584 H         1 UNK         0.0790 
     94 H94        27.7247  -47.3852  -60.2727 H         1 UNK         0.0790 
     95 H95        28.6420  -48.7800  -59.7237 H         1 UNK         0.0790 
     96 H96        28.1377  -49.5551  -57.4475 H         1 UNK         0.3215 
     97 H97        26.0596  -51.3857  -55.2148 H         1 UNK         0.0863 
     98 H98        27.8335  -53.0994  -55.5756 H         1 UNK         0.0808 
     99 H99        28.2784  -52.3438  -57.1051 H         1 UNK         0.0808 
    100 H100       26.6946  -53.0740  -56.9111 H         1 UNK         0.0808 
    101 H101       28.8647  -50.6907  -55.2817 H         1 UNK         0.3118 
    102 H102       28.5295  -47.6429  -53.4474 H         1 UNK         0.0546 
    103 H103       29.5679  -50.4173  -52.6567 H         1 UNK         0.0828 
    104 H104       28.5472  -49.3658  -51.6963 H         1 UNK         0.0828 
    105 H105       30.2080  -48.9013  -52.0355 H         1 UNK         0.0828 
    106 H106       30.7149  -49.1825  -54.5838 H         1 UNK         0.3005 
    107 H107       30.5717  -47.6932  -57.7742 H         1 UNK         0.1257 
    108 H108       31.5625  -45.7336  -56.5396 H         1 UNK         0.0775 
    109 H109       32.6914  -46.8148  -55.7485 H         1 UNK         0.0775 
    110 H110       34.8368  -45.1148  -57.1636 H         1 UNK         0.0840 
    111 H111       34.5270  -44.7201  -58.8362 H         1 UNK         0.0840 
    112 H112       32.6627  -49.1456  -56.5228 H         1 UNK         0.2987 
    113 H113       31.2085  -52.3075  -56.4120 H         1 UNK         0.0785 
    114 H114       31.7074  -52.2891  -58.8636 H         1 UNK         0.0798 
    115 H115       32.9886  -53.0814  -57.9632 H         1 UNK         0.0798 
    116 H116       33.2162  -51.4379  -58.5643 H         1 UNK         0.0798 
    117 H117       33.9247  -51.5746  -56.1550 H         1 UNK         0.3079 
    118 H118       34.3674  -51.6399  -53.2683 H         1 UNK         0.0794 
    119 H119       36.1349  -49.9674  -53.9705 H         1 UNK         0.0786 
    120 H120       35.0247  -49.3180  -55.1704 H         1 UNK         0.0786 
    121 H121       35.6099  -50.9774  -55.2962 H         1 UNK         0.0786 
    122 H122       33.9507  -48.7159  -52.9571 H         1 UNK         0.3032 
    123 H123       32.7598  -49.1077  -49.6210 H         1 UNK         0.1094 
    124 H124       35.2517  -49.1374  -49.6322 H         1 UNK         0.0794 
    125 H125       35.2766  -47.8745  -50.8535 H         1 UNK         0.0794 
    126 H126       34.6245  -47.5430  -49.2500 H         1 UNK         0.0794 
    127 H127       31.7513  -47.3007  -50.3355 H         1 UNK         0.3016 
@<TRIPOS>BOND
     1    1    2 1    
     2    1   67 1    
     3    1   68 1    
     4    1   69 1    
     5    2    3 2    
     6    2    4 am   BACKBONE|DICT|INTERRES
     7    4    5 1    
     8    4   70 1    
     9    5    6 1    
    10    5   65 1    
    11    5   71 1    
    12    6    7 1    
    13    6   72 1    
    14    6   73 1    
    15    7    8 1    
    16    8    9 1    
    17    8   74 1    
    18    8   75 1    
    19    9   10 ar   
    20    9   14 ar   
    21   10   11 ar   
    22   10   76 1    
    23   11   12 ar   
    24   11   48 1    
    25   12   13 ar   
    26   12   77 1    
    27   13   14 ar   
    28   13   15 1    
    29   14   78 1    
    30   15   16 1    
    31   15   79 1    
    32   15   80 1    
    33   16   17 1    
    34   17   18 1    
    35   17   81 1    
    36   17   82 1    
    37   18   19 1    
    38   18   22 1    
    39   18   83 1    
    40   19   20 am   BACKBONE|DICT|INTERRES
    41   19   21 2    
    42   20   84 1    
    43   20   85 1    
    44   22   23 am   BACKBONE|DICT|INTERRES
    45   22   86 1    
    46   23   24 2    
    47   23   25 1    
    48   25   26 1    
    49   25   27 1    
    50   25   87 1    
    51   26   88 1    
    52   26   89 1    
    53   26   90 1    
    54   27   28 am   BACKBONE|DICT|INTERRES
    55   27   91 1    
    56   28   29 2    
    57   28   30 1    
    58   30   31 1    
    59   30   32 1    
    60   30   92 1    
    61   31   93 1    
    62   31   94 1    
    63   31   95 1    
    64   32   33 am   BACKBONE|DICT|INTERRES
    65   32   96 1    
    66   33   34 2    
    67   33   35 1    
    68   35   36 1    
    69   35   37 1    
    70   35   97 1    
    71   36   98 1    
    72   36   99 1    
    73   36  100 1    
    74   37   38 am   BACKBONE|DICT|INTERRES
    75   37  101 1    
    76   38   39 2    
    77   38   40 1    
    78   40   41 1    
    79   40   42 1    
    80   40  102 1    
    81   41  103 1    
    82   41  104 1    
    83   41  105 1    
    84   42   43 am   BACKBONE|DICT|INTERRES
    85   42  106 1    
    86   43   44 2    
    87   43   45 1    
    88   45   46 1    
    89   45   49 1    
    90   45  107 1    
    91   46   47 1    
    92   46  108 1    
    93   46  109 1    
    94   47   48 1    
    95   48  110 1    
    96   48  111 1    
    97   49   50 am   BACKBONE|DICT|INTERRES
    98   49  112 1    
    99   50   51 2    
   100   50   52 1    
   101   52   53 1    
   102   52   54 1    
   103   52  113 1    
   104   53  114 1    
   105   53  115 1    
   106   53  116 1    
   107   54   55 am   BACKBONE|DICT|INTERRES
   108   54  117 1    
   109   55   56 2    
   110   55   57 1    
   111   57   58 1    
   112   57   59 1    
   113   57  118 1    
   114   58  119 1    
   115   58  120 1    
   116   58  121 1    
   117   59   60 am   BACKBONE|DICT|INTERRES
   118   59  122 1    
   119   60   61 2    
   120   60   62 1    
   121   62   63 1    
   122   62   64 1    
   123   62  123 1    
   124   63  124 1    
   125   63  125 1    
   126   63  126 1    
   127   64   65 am   BACKBONE|DICT|INTERRES
   128   64  127 1    
   129   65   66 2    
@<TRIPOS>SUBSTRUCTURE
     1 UNK         1 GROUP             0       ****    0 ROOT    
