@<TRIPOS>MOLECULE
3R134
127   129    1
SMALL
USER_CHARGES


@<TRIPOS>ATOM
      1 CA         37.2420  -48.6653  -55.4837 C.3       0 UNK        -0.1968 
      2 C          35.9957  -47.8300  -55.2359 C.2       0 UNK         0.4852 
      3 O          34.8957  -48.2553  -55.5882 O.2       0 UNK        -0.5359 
      4 N          36.1494  -46.6500  -54.6194 N.am      1 UNK        -0.4300 
      5 CA         35.0580  -45.7173  -54.3112 C.3       1 UNK         0.0863 
      6 C6         35.6207  -44.3344  -53.8767 C.3       11 UNK        -0.0953 
      7 S7         34.4354  -43.1113  -53.2149 S.3       11 UNK        -0.2369 
      8 C8         33.3038  -42.8285  -54.6258 C.3       11 UNK         0.0226 
      9 C9         31.8122  -42.7937  -54.2757 C.ar      11 UNK        -0.0699 
     10 C10        31.3212  -43.0901  -52.9962 C.ar      11 UNK        -0.0804 
     11 C11        29.9513  -43.0521  -52.7233 C.ar      11 UNK        -0.0871 
     12 C12        29.0580  -42.7153  -53.7421 C.ar      11 UNK        -0.1008 
     13 C13        29.5260  -42.4307  -55.0279 C.ar      11 UNK        -0.0735 
     14 C14        30.9006  -42.4662  -55.2850 C.ar      11 UNK        -0.0945 
     15 C15        28.5398  -42.0808  -56.1322 C.3       11 UNK         0.0169 
     16 S16        27.7135  -43.5662  -56.7823 S.3       11 UNK        -0.2669 
     17 C17        29.0012  -44.2792  -57.8643 C.3       11 UNK        -0.0850 
     18 CA         28.5885  -44.2618  -59.3656 C.3       10 UNK         0.0855 
     19 C          29.7745  -44.5900  -60.3251 C.2       10 UNK         0.5543 
     20 N          29.5351  -45.1900  -61.4847 N.am      10 UNK        -0.7343 
     21 O          30.9234  -44.2648  -60.0357 O.2       10 UNK        -0.5027 
     22 N          27.3491  -45.0255  -59.6132 N.am      10 UNK        -0.4495 
     23 C          27.2046  -46.3499  -59.4751 C.2       10 UNK         0.4903 
     24 O          28.1265  -47.1309  -59.2335 O.2       10 UNK        -0.4860 
     25 CA         25.7795  -46.9015  -59.6306 C.3       9 UNK         0.0227 
     26 CB         25.6954  -47.9066  -60.7912 C.3       9 UNK        -0.1964 
     27 N          25.3814  -47.5596  -58.3889 N.am      9 UNK        -0.4231 
     28 C          25.0216  -46.9305  -57.2643 C.2       9 UNK         0.5014 
     29 O          24.8052  -45.7196  -57.2053 O.2       9 UNK        -0.5270 
     30 CA         24.8782  -47.7733  -55.9825 C.3       8 UNK         0.0284 
     31 CB         23.4375  -48.2943  -55.8143 C.3       8 UNK        -0.1977 
     32 N          25.8657  -48.8535  -55.8323 N.am      8 UNK        -0.4342 
     33 C          26.0114  -49.9761  -56.5526 C.2       8 UNK         0.5039 
     34 O          25.3021  -50.2577  -57.5198 O.2       8 UNK        -0.5547 
     35 CA         27.1532  -50.9389  -56.1742 C.3       7 UNK         0.0281 
     36 CB         28.2250  -50.9486  -57.2773 C.3       7 UNK        -0.1963 
     37 N          27.7917  -50.6355  -54.8908 N.am      7 UNK        -0.4444 
     38 C          27.2453  -50.8452  -53.6859 C.2       7 UNK         0.5104 
     39 O          26.1482  -51.3772  -53.5150 O.2       7 UNK        -0.5100 
     40 CA         28.0410  -50.3453  -52.4652 C.3       6 UNK         0.0396 
     41 CB         29.0280  -51.4200  -51.9846 C.3       6 UNK        -0.1801 
     42 N          28.7611  -49.0893  -52.7054 N.am      6 UNK        -0.4747 
     43 C          28.1807  -47.9195  -53.0187 C.2       6 UNK         0.5012 
     44 O          26.9643  -47.7727  -53.1433 O.2       6 UNK        -0.5003 
     45 CA         29.1230  -46.7280  -53.2873 C.3       5 UNK         0.0782 
     46 C46        29.6804  -46.1404  -51.9648 C.3       11 UNK        -0.0868 
     47 S47        28.5157  -44.9370  -51.2386 S.3       11 UNK        -0.2515 
     48 C48        29.4466  -43.3714  -51.3215 C.3       11 UNK         0.0199 
     49 N          30.1813  -47.0799  -54.2377 N.am      5 UNK        -0.4607 
     50 C          29.9645  -47.4752  -55.5009 C.2       4 UNK         0.5031 
     51 O          28.8504  -47.5205  -56.0188 O.2       4 UNK        -0.5119 
     52 CA         31.1860  -47.9623  -56.3008 C.3       4 UNK         0.0263 
     53 CB         31.9663  -46.7788  -56.8969 C.3       4 UNK        -0.1967 
     54 N          32.0825  -48.7990  -55.4965 N.am      4 UNK        -0.4237 
     55 C          31.7310  -49.9638  -54.9304 C.2       3 UNK         0.4908 
     56 O          30.6377  -50.5015  -55.0940 O.2       3 UNK        -0.5102 
     57 CA         32.7424  -50.6153  -53.9757 C.3       3 UNK         0.0241 
     58 CB         33.7878  -51.4380  -54.7458 C.3       3 UNK        -0.1971 
     59 N          33.4021  -49.6274  -53.1205 N.am      3 UNK        -0.4139 
     60 C          32.7874  -48.9450  -52.1428 C.2       2 UNK         0.5016 
     61 O          31.6095  -49.1130  -51.8240 O.2       2 UNK        -0.5319 
     62 CA         33.6176  -47.8601  -51.4325 C.3       2 UNK         0.0286 
     63 CB         34.4638  -48.4733  -50.3060 C.3       2 UNK        -0.1963 
     64 N          34.4850  -47.1130  -52.3512 N.am      2 UNK        -0.4790 
     65 C          34.0233  -46.3268  -53.3359 C.2       1 UNK         0.5024 
     66 O          32.8243  -46.1335  -53.5310 O.2       1 UNK        -0.4888 
     67 H67        37.3712  -48.8340  -56.5523 H         1 UNK         0.0892 
     68 H68        38.1413  -48.1801  -55.1049 H         1 UNK         0.0892 
     69 H69        37.1467  -49.6346  -54.9952 H         1 UNK         0.0892 
     70 H70        37.0763  -46.3499  -54.3517 H         1 UNK         0.3107 
     71 H71        34.5243  -45.5681  -55.2510 H         1 UNK         0.0773 
     72 H72        36.1450  -43.8736  -54.7154 H         1 UNK         0.0680 
     73 H73        36.3745  -44.4774  -53.1006 H         1 UNK         0.0680 
     74 H74        33.5811  -41.8816  -55.0909 H         1 UNK         0.0650 
     75 H75        33.4531  -43.5940  -55.3858 H         1 UNK         0.0650 
     76 H76        31.9956  -43.3645  -52.1989 H         1 UNK         0.1397 
     77 H77        27.9959  -42.6905  -53.5384 H         1 UNK         0.1363 
     78 H78        31.2647  -42.2406  -56.2780 H         1 UNK         0.1355 
     79 H79        29.0317  -41.5441  -56.9450 H         1 UNK         0.0707 
     80 H80        27.7816  -41.4036  -55.7362 H         1 UNK         0.0707 
     81 H81        29.1938  -45.3000  -57.5357 H         1 UNK         0.1034 
     82 H82        29.9346  -43.7370  -57.7113 H         1 UNK         0.1034 
     83 H83        28.3375  -43.2291  -59.6100 H         1 UNK         0.0482 
     84 H84        30.3025  -45.3896  -62.1066 H         1 UNK         0.3460 
     85 H85        28.5969  -45.4581  -61.7341 H         1 UNK         0.3460 
     86 H86        26.5317  -44.4690  -59.8175 H         1 UNK         0.2989 
     87 H87        25.0876  -46.0818  -59.8356 H         1 UNK         0.0559 
     88 H88        26.3537  -48.7624  -60.6345 H         1 UNK         0.0848 
     89 H89        25.9856  -47.4397  -61.7332 H         1 UNK         0.0848 
     90 H90        24.6804  -48.2846  -60.9155 H         1 UNK         0.0848 
     91 H91        25.5090  -48.5668  -58.3300 H         1 UNK         0.3144 
     92 H92        25.0760  -47.0949  -55.1509 H         1 UNK         0.0727 
     93 H93        23.1489  -48.9681  -56.6214 H         1 UNK         0.0790 
     94 H94        22.7248  -47.4685  -55.8132 H         1 UNK         0.0790 
     95 H95        23.3174  -48.8280  -54.8714 H         1 UNK         0.0790 
     96 H96        26.5424  -48.6933  -55.0942 H         1 UNK         0.3215 
     97 H97        26.7212  -51.9397  -56.1093 H         1 UNK         0.0863 
     98 H98        28.6880  -49.9679  -57.3942 H         1 UNK         0.0808 
     99 H99        27.7947  -51.2218  -58.2417 H         1 UNK         0.0808 
    100 H100       29.0138  -51.6689  -57.0598 H         1 UNK         0.0808 
    101 H101       28.7418  -50.2729  -54.9312 H         1 UNK         0.3118 
    102 H102       27.3260  -50.1599  -51.6612 H         1 UNK         0.0546 
    103 H103       29.5530  -51.1031  -51.0832 H         1 UNK         0.0828 
    104 H104       29.7761  -51.6489  -52.7437 H         1 UNK         0.0828 
    105 H105       28.5084  -52.3494  -51.7484 H         1 UNK         0.0828 
    106 H106       29.7723  -49.1160  -52.5985 H         1 UNK         0.3005 
    107 H107       28.5314  -45.9565  -53.7874 H         1 UNK         0.1257 
    108 H108       30.6348  -45.6456  -52.1388 H         1 UNK         0.0775 
    109 H109       29.8979  -46.9181  -51.2299 H         1 UNK         0.0775 
    110 H110       28.8024  -42.5601  -50.9796 H         1 UNK         0.0840 
    111 H111       30.2746  -43.4186  -50.6124 H         1 UNK         0.0840 
    112 H112       31.1384  -46.9984  -53.9072 H         1 UNK         0.2987 
    113 H113       30.8212  -48.5775  -57.1259 H         1 UNK         0.0785 
    114 H114       32.8717  -47.1127  -57.4039 H         1 UNK         0.0798 
    115 H115       31.3629  -46.2492  -57.6340 H         1 UNK         0.0798 
    116 H116       32.2554  -46.0559  -56.1343 H         1 UNK         0.0798 
    117 H117       33.0366  -48.4674  -55.3706 H         1 UNK         0.3079 
    118 H118       32.1907  -51.3000  -53.3281 H         1 UNK         0.0794 
    119 H119       34.4752  -51.9419  -54.0663 H         1 UNK         0.0786 
    120 H120       34.3777  -50.8215  -55.4240 H         1 UNK         0.0786 
    121 H121       33.3051  -52.2092  -55.3477 H         1 UNK         0.0786 
    122 H122       34.3543  -49.3857  -53.3522 H         1 UNK         0.3032 
    123 H123       32.9132  -47.1540  -50.9861 H         1 UNK         0.1094 
    124 H124       33.8355  -49.0208  -49.6018 H         1 UNK         0.0794 
    125 H125       35.2079  -49.1721  -50.6902 H         1 UNK         0.0794 
    126 H126       34.9868  -47.7030  -49.7388 H         1 UNK         0.0794 
    127 H127       35.4827  -47.2327  -52.2509 H         1 UNK         0.3016 
@<TRIPOS>BOND
     1    1    2 1    
     2    1   67 1    
     3    1   68 1    
     4    1   69 1    
     5    2    3 2    
     6    2    4 am   BACKBONE|DICT|INTERRES
     7    4    5 1    
     8    4   70 1    
     9    5    6 1    
    10    5   65 1    
    11    5   71 1    
    12    6    7 1    
    13    6   72 1    
    14    6   73 1    
    15    7    8 1    
    16    8    9 1    
    17    8   74 1    
    18    8   75 1    
    19    9   10 ar   
    20    9   14 ar   
    21   10   11 ar   
    22   10   76 1    
    23   11   12 ar   
    24   11   48 1    
    25   12   13 ar   
    26   12   77 1    
    27   13   14 ar   
    28   13   15 1    
    29   14   78 1    
    30   15   16 1    
    31   15   79 1    
    32   15   80 1    
    33   16   17 1    
    34   17   18 1    
    35   17   81 1    
    36   17   82 1    
    37   18   19 1    
    38   18   22 1    
    39   18   83 1    
    40   19   20 am   BACKBONE|DICT|INTERRES
    41   19   21 2    
    42   20   84 1    
    43   20   85 1    
    44   22   23 am   BACKBONE|DICT|INTERRES
    45   22   86 1    
    46   23   24 2    
    47   23   25 1    
    48   25   26 1    
    49   25   27 1    
    50   25   87 1    
    51   26   88 1    
    52   26   89 1    
    53   26   90 1    
    54   27   28 am   BACKBONE|DICT|INTERRES
    55   27   91 1    
    56   28   29 2    
    57   28   30 1    
    58   30   31 1    
    59   30   32 1    
    60   30   92 1    
    61   31   93 1    
    62   31   94 1    
    63   31   95 1    
    64   32   33 am   BACKBONE|DICT|INTERRES
    65   32   96 1    
    66   33   34 2    
    67   33   35 1    
    68   35   36 1    
    69   35   37 1    
    70   35   97 1    
    71   36   98 1    
    72   36   99 1    
    73   36  100 1    
    74   37   38 am   BACKBONE|DICT|INTERRES
    75   37  101 1    
    76   38   39 2    
    77   38   40 1    
    78   40   41 1    
    79   40   42 1    
    80   40  102 1    
    81   41  103 1    
    82   41  104 1    
    83   41  105 1    
    84   42   43 am   BACKBONE|DICT|INTERRES
    85   42  106 1    
    86   43   44 2    
    87   43   45 1    
    88   45   46 1    
    89   45   49 1    
    90   45  107 1    
    91   46   47 1    
    92   46  108 1    
    93   46  109 1    
    94   47   48 1    
    95   48  110 1    
    96   48  111 1    
    97   49   50 am   BACKBONE|DICT|INTERRES
    98   49  112 1    
    99   50   51 2    
   100   50   52 1    
   101   52   53 1    
   102   52   54 1    
   103   52  113 1    
   104   53  114 1    
   105   53  115 1    
   106   53  116 1    
   107   54   55 am   BACKBONE|DICT|INTERRES
   108   54  117 1    
   109   55   56 2    
   110   55   57 1    
   111   57   58 1    
   112   57   59 1    
   113   57  118 1    
   114   58  119 1    
   115   58  120 1    
   116   58  121 1    
   117   59   60 am   BACKBONE|DICT|INTERRES
   118   59  122 1    
   119   60   61 2    
   120   60   62 1    
   121   62   63 1    
   122   62   64 1    
   123   62  123 1    
   124   63  124 1    
   125   63  125 1    
   126   63  126 1    
   127   64   65 am   BACKBONE|DICT|INTERRES
   128   64  127 1    
   129   65   66 2    
@<TRIPOS>SUBSTRUCTURE
     1 UNK         1 GROUP             0       ****    0 ROOT    
