@<TRIPOS>MOLECULE
3R134
127   129    1
SMALL
USER_CHARGES


@<TRIPOS>ATOM
      1 CA         28.6275  -45.5270  -50.2968 C.3       0 UNK        -0.1968 
      2 C          30.0164  -45.7351  -49.7094 C.2       0 UNK         0.4852 
      3 O          30.1409  -46.0102  -48.5146 O.2       0 UNK        -0.5359 
      4 N          31.0568  -45.5951  -50.5399 N.am      1 UNK        -0.4300 
      5 CA         32.4594  -45.8326  -50.1875 C.3       1 UNK         0.0863 
      6 C6         33.4086  -44.9594  -51.0526 C.3       11 UNK        -0.0953 
      7 S7         33.3792  -45.3797  -52.8269 S.3       11 UNK        -0.2369 
      8 C8         32.5193  -43.9435  -53.5445 C.3       11 UNK         0.0226 
      9 C9         32.0934  -44.2042  -54.9839 C.ar      11 UNK        -0.0699 
     10 C10        33.0295  -44.6332  -55.9302 C.ar      11 UNK        -0.0804 
     11 C11        32.6426  -44.8998  -57.2454 C.ar      11 UNK        -0.0871 
     12 C12        31.3143  -44.6990  -57.6262 C.ar      11 UNK        -0.1008 
     13 C13        30.3686  -44.2644  -56.6937 C.ar      11 UNK        -0.0735 
     14 C14        30.7623  -44.0193  -55.3737 C.ar      11 UNK        -0.0945 
     15 C15        28.9166  -44.0983  -57.1105 C.3       11 UNK         0.0169 
     16 S16        28.4747  -42.3420  -57.2944 S.3       11 UNK        -0.2669 
     17 C17        27.0955  -42.4214  -58.4896 C.3       11 UNK        -0.0850 
     18 CA         25.7021  -42.5677  -57.8234 C.3       10 UNK         0.0855 
     19 C          24.5715  -42.3791  -58.8794 C.2       10 UNK         0.5543 
     20 N          23.8043  -43.4039  -59.2350 N.am      10 UNK        -0.7343 
     21 O          24.3885  -41.2745  -59.3848 O.2       10 UNK        -0.5027 
     22 N          25.6070  -43.8182  -57.0580 N.am      10 UNK        -0.4495 
     23 C          24.6687  -44.1063  -56.1487 C.2       10 UNK         0.4903 
     24 O          23.8407  -43.2906  -55.7404 O.2       10 UNK        -0.4860 
     25 CA         24.6525  -45.5542  -55.6119 C.3       9 UNK         0.0227 
     26 CB         23.2316  -46.0203  -55.2314 C.3       9 UNK        -0.1964 
     27 N          25.2931  -46.5382  -56.5003 N.am      9 UNK        -0.4231 
     28 C          24.9632  -46.8276  -57.7725 C.2       9 UNK         0.5014 
     29 O          24.0652  -46.2522  -58.3893 O.2       9 UNK        -0.5270 
     30 CA         25.7946  -47.8963  -58.5104 C.3       8 UNK         0.0284 
     31 CB         26.7174  -47.2293  -59.5443 C.3       8 UNK        -0.1977 
     32 N          26.6021  -48.7310  -57.6179 N.am      8 UNK        -0.4342 
     33 C          26.1043  -49.6728  -56.8011 C.2       8 UNK         0.5039 
     34 O          24.9215  -50.0152  -56.8017 O.2       8 UNK        -0.5547 
     35 CA         27.0681  -50.3253  -55.7894 C.3       7 UNK         0.0281 
     36 CB         27.4747  -51.7287  -56.2659 C.3       7 UNK        -0.1963 
     37 N          28.2773  -49.5414  -55.5150 N.am      7 UNK        -0.4444 
     38 C          28.3019  -48.2978  -55.0090 C.2       7 UNK         0.5104 
     39 O          27.2923  -47.6809  -54.6687 O.2       7 UNK        -0.5100 
     40 CA         29.6671  -47.5928  -54.9290 C.3       6 UNK         0.0396 
     41 CB         30.1986  -47.6406  -53.4911 C.3       6 UNK        -0.1801 
     42 N          30.6714  -48.1321  -55.8549 N.am      6 UNK        -0.4747 
     43 C          30.5520  -48.1310  -57.1949 C.2       6 UNK         0.5012 
     44 O          29.5880  -47.6339  -57.7806 O.2       6 UNK        -0.5003 
     45 CA         31.6156  -48.8794  -58.0302 C.3       5 UNK         0.0782 
     46 C46        32.4891  -47.9322  -58.8958 C.3       11 UNK        -0.0868 
     47 S47        33.9318  -47.2095  -58.0343 S.3       11 UNK        -0.2515 
     48 C48        33.6625  -45.4213  -58.2426 C.3       11 UNK         0.0199 
     49 N          32.4208  -49.8278  -57.2547 N.am      5 UNK        -0.4607 
     50 C          31.9598  -50.9364  -56.6623 C.2       4 UNK         0.5031 
     51 O          30.7904  -51.3130  -56.7396 O.2       4 UNK        -0.5119 
     52 CA         32.9601  -51.7355  -55.8070 C.3       4 UNK         0.0263 
     53 CB         33.5933  -52.8624  -56.6387 C.3       4 UNK        -0.1967 
     54 N          34.0224  -50.9213  -55.1990 N.am      4 UNK        -0.4237 
     55 C          33.8151  -49.9200  -54.3321 C.2       3 UNK         0.4908 
     56 O          32.6966  -49.5250  -54.0020 O.2       3 UNK        -0.5102 
     57 CA         35.0627  -49.2090  -53.7848 C.3       3 UNK         0.0241 
     58 CB         35.3990  -47.9830  -54.6491 C.3       3 UNK        -0.1971 
     59 N          34.8696  -48.7875  -52.3942 N.am      3 UNK        -0.4139 
     60 C          34.8473  -49.6265  -51.3479 C.2       2 UNK         0.5016 
     61 O          35.0383  -50.8400  -51.4488 O.2       2 UNK        -0.5319 
     62 CA         34.6072  -49.0322  -49.9449 C.3       2 UNK         0.0286 
     63 CB         35.9079  -49.0553  -49.1240 C.3       2 UNK        -0.1963 
     64 N          34.0760  -47.6649  -49.9454 N.am      2 UNK        -0.4790 
     65 C          32.8080  -47.3413  -50.2343 C.2       1 UNK         0.5024 
     66 O          31.9521  -48.1776  -50.5331 O.2       1 UNK        -0.4888 
     67 H67        28.0757  -44.7955  -49.7070 H         1 UNK         0.0892 
     68 H68        28.6677  -45.1686  -51.3253 H         1 UNK         0.0892 
     69 H69        28.0719  -46.4644  -50.2846 H         1 UNK         0.0892 
     70 H70        30.8915  -45.4086  -51.5172 H         1 UNK         0.3107 
     71 H71        32.6005  -45.5225  -49.1497 H         1 UNK         0.0773 
     72 H72        34.4384  -45.0441  -50.7027 H         1 UNK         0.0680 
     73 H73        33.1543  -43.9057  -50.9265 H         1 UNK         0.0680 
     74 H74        33.1803  -43.0764  -53.5150 H         1 UNK         0.0650 
     75 H75        31.6526  -43.7001  -52.9285 H         1 UNK         0.0650 
     76 H76        34.0584  -44.7870  -55.6348 H         1 UNK         0.1397 
     77 H77        31.0096  -44.9055  -58.6430 H         1 UNK         0.1363 
     78 H78        30.0273  -43.6887  -54.6528 H         1 UNK         0.1355 
     79 H79        28.7366  -44.6309  -58.0453 H         1 UNK         0.0707 
     80 H80        28.2699  -44.5601  -56.3633 H         1 UNK         0.0707 
     81 H81        27.1359  -41.4976  -59.0706 H         1 UNK         0.1034 
     82 H82        27.2692  -43.2244  -59.2082 H         1 UNK         0.1034 
     83 H83        25.5883  -41.7466  -57.1130 H         1 UNK         0.0482 
     84 H84        23.9396  -44.3275  -58.8361 H         1 UNK         0.3460 
     85 H85        23.0776  -43.2584  -59.9174 H         1 UNK         0.3460 
     86 H86        26.2304  -44.5576  -57.3383 H         1 UNK         0.2989 
     87 H87        25.2509  -45.5419  -54.6998 H         1 UNK         0.0559 
     88 H88        22.5570  -45.9991  -56.0879 H         1 UNK         0.0848 
     89 H89        22.7996  -45.3799  -54.4615 H         1 UNK         0.0848 
     90 H90        23.2404  -47.0363  -54.8366 H         1 UNK         0.0848 
     91 H91        26.0492  -47.0622  -56.0673 H         1 UNK         0.3144 
     92 H92        25.0942  -48.5423  -59.0439 H         1 UNK         0.0727 
     93 H93        27.4344  -46.5565  -59.0730 H         1 UNK         0.0790 
     94 H94        26.1422  -46.6418  -60.2614 H         1 UNK         0.0790 
     95 H95        27.2793  -47.9711  -60.1123 H         1 UNK         0.0790 
     96 H96        27.5913  -48.5124  -57.5666 H         1 UNK         0.3215 
     97 H97        26.5246  -50.4257  -54.8475 H         1 UNK         0.0863 
     98 H98        28.0979  -52.2350  -55.5284 H         1 UNK         0.0808 
     99 H99        28.0308  -51.6898  -57.2036 H         1 UNK         0.0808 
    100 H100       26.5972  -52.3551  -56.4325 H         1 UNK         0.0808 
    101 H101       29.1587  -49.9648  -55.7802 H         1 UNK         0.3118 
    102 H102       29.5052  -46.5485  -55.1955 H         1 UNK         0.0546 
    103 H103       31.1594  -47.1363  -53.4071 H         1 UNK         0.0828 
    104 H104       30.3311  -48.6652  -53.1416 H         1 UNK         0.0828 
    105 H105       29.5089  -47.1520  -52.8030 H         1 UNK         0.0828 
    106 H106       31.4757  -48.5833  -55.4305 H         1 UNK         0.3005 
    107 H107       31.0306  -49.4818  -58.7295 H         1 UNK         0.1257 
    108 H108       32.8863  -48.4989  -59.7392 H         1 UNK         0.0775 
    109 H109       31.8824  -47.1453  -59.3473 H         1 UNK         0.0775 
    110 H110       34.6116  -44.9042  -58.0939 H         1 UNK         0.0840 
    111 H111       33.3581  -45.2044  -59.2678 H         1 UNK         0.0840 
    112 H112       33.3897  -49.5738  -57.1267 H         1 UNK         0.2987 
    113 H113       32.3921  -52.1902  -54.9925 H         1 UNK         0.0785 
    114 H114       34.2027  -52.4700  -57.4538 H         1 UNK         0.0798 
    115 H115       32.8256  -53.4979  -57.0828 H         1 UNK         0.0798 
    116 H116       34.2248  -53.5041  -56.0239 H         1 UNK         0.0798 
    117 H117       34.9725  -51.1730  -55.4328 H         1 UNK         0.3079 
    118 H118       35.9092  -49.8984  -53.8154 H         1 UNK         0.0794 
    119 H119       34.5475  -47.3080  -54.7427 H         1 UNK         0.0786 
    120 H120       35.6813  -48.2851  -55.6582 H         1 UNK         0.0786 
    121 H121       36.2343  -47.4171  -54.2364 H         1 UNK         0.0786 
    122 H122       34.6475  -47.8152  -52.2373 H         1 UNK         0.3032 
    123 H123       33.8815  -49.6811  -49.4486 H         1 UNK         0.1094 
    124 H124       35.7388  -48.7184  -48.1010 H         1 UNK         0.0794 
    125 H125       36.3159  -50.0655  -49.0652 H         1 UNK         0.0794 
    126 H126       36.6763  -48.4198  -49.5662 H         1 UNK         0.0794 
    127 H127       34.7269  -46.9293  -49.7087 H         1 UNK         0.3016 
@<TRIPOS>BOND
     1    1    2 1    
     2    1   67 1    
     3    1   68 1    
     4    1   69 1    
     5    2    3 2    
     6    2    4 am   BACKBONE|DICT|INTERRES
     7    4    5 1    
     8    4   70 1    
     9    5    6 1    
    10    5   65 1    
    11    5   71 1    
    12    6    7 1    
    13    6   72 1    
    14    6   73 1    
    15    7    8 1    
    16    8    9 1    
    17    8   74 1    
    18    8   75 1    
    19    9   10 ar   
    20    9   14 ar   
    21   10   11 ar   
    22   10   76 1    
    23   11   12 ar   
    24   11   48 1    
    25   12   13 ar   
    26   12   77 1    
    27   13   14 ar   
    28   13   15 1    
    29   14   78 1    
    30   15   16 1    
    31   15   79 1    
    32   15   80 1    
    33   16   17 1    
    34   17   18 1    
    35   17   81 1    
    36   17   82 1    
    37   18   19 1    
    38   18   22 1    
    39   18   83 1    
    40   19   20 am   BACKBONE|DICT|INTERRES
    41   19   21 2    
    42   20   84 1    
    43   20   85 1    
    44   22   23 am   BACKBONE|DICT|INTERRES
    45   22   86 1    
    46   23   24 2    
    47   23   25 1    
    48   25   26 1    
    49   25   27 1    
    50   25   87 1    
    51   26   88 1    
    52   26   89 1    
    53   26   90 1    
    54   27   28 am   BACKBONE|DICT|INTERRES
    55   27   91 1    
    56   28   29 2    
    57   28   30 1    
    58   30   31 1    
    59   30   32 1    
    60   30   92 1    
    61   31   93 1    
    62   31   94 1    
    63   31   95 1    
    64   32   33 am   BACKBONE|DICT|INTERRES
    65   32   96 1    
    66   33   34 2    
    67   33   35 1    
    68   35   36 1    
    69   35   37 1    
    70   35   97 1    
    71   36   98 1    
    72   36   99 1    
    73   36  100 1    
    74   37   38 am   BACKBONE|DICT|INTERRES
    75   37  101 1    
    76   38   39 2    
    77   38   40 1    
    78   40   41 1    
    79   40   42 1    
    80   40  102 1    
    81   41  103 1    
    82   41  104 1    
    83   41  105 1    
    84   42   43 am   BACKBONE|DICT|INTERRES
    85   42  106 1    
    86   43   44 2    
    87   43   45 1    
    88   45   46 1    
    89   45   49 1    
    90   45  107 1    
    91   46   47 1    
    92   46  108 1    
    93   46  109 1    
    94   47   48 1    
    95   48  110 1    
    96   48  111 1    
    97   49   50 am   BACKBONE|DICT|INTERRES
    98   49  112 1    
    99   50   51 2    
   100   50   52 1    
   101   52   53 1    
   102   52   54 1    
   103   52  113 1    
   104   53  114 1    
   105   53  115 1    
   106   53  116 1    
   107   54   55 am   BACKBONE|DICT|INTERRES
   108   54  117 1    
   109   55   56 2    
   110   55   57 1    
   111   57   58 1    
   112   57   59 1    
   113   57  118 1    
   114   58  119 1    
   115   58  120 1    
   116   58  121 1    
   117   59   60 am   BACKBONE|DICT|INTERRES
   118   59  122 1    
   119   60   61 2    
   120   60   62 1    
   121   62   63 1    
   122   62   64 1    
   123   62  123 1    
   124   63  124 1    
   125   63  125 1    
   126   63  126 1    
   127   64   65 am   BACKBONE|DICT|INTERRES
   128   64  127 1    
   129   65   66 2    
@<TRIPOS>SUBSTRUCTURE
     1 UNK         1 GROUP             0       ****    0 ROOT    
