@<TRIPOS>MOLECULE
3R134
127   129    1
SMALL
USER_CHARGES


@<TRIPOS>ATOM
      1 CA         37.4844  -47.7231  -50.5873 C.3       0 UNK        -0.1968 
      2 C          36.5764  -47.6182  -51.8036 C.2       0 UNK         0.4852 
      3 O          36.5660  -48.5225  -52.6395 O.2       0 UNK        -0.5359 
      4 N          35.7971  -46.5318  -51.9016 N.am      1 UNK        -0.4300 
      5 CA         34.8821  -46.2415  -53.0153 C.3       1 UNK         0.0863 
      6 C6         34.6934  -44.7129  -53.2145 C.3       11 UNK        -0.0953 
      7 S7         34.5509  -44.2544  -54.9757 S.3       11 UNK        -0.2369 
      8 C8         33.9062  -42.5565  -54.8670 C.3       11 UNK         0.0226 
      9 C9         32.3904  -42.5250  -54.7291 C.ar      11 UNK        -0.0699 
     10 C10        31.7959  -42.5054  -53.4646 C.ar      11 UNK        -0.0804 
     11 C11        30.4047  -42.4626  -53.3330 C.ar      11 UNK        -0.0871 
     12 C12        29.6078  -42.4007  -54.4792 C.ar      11 UNK        -0.1008 
     13 C13        30.1886  -42.4295  -55.7500 C.ar      11 UNK        -0.0735 
     14 C14        31.5807  -42.4948  -55.8690 C.ar      11 UNK        -0.0945 
     15 C15        29.3101  -42.3803  -56.9903 C.3       11 UNK         0.0169 
     16 S16        28.2459  -43.8505  -57.1146 S.3       11 UNK        -0.2669 
     17 C17        27.4861  -43.5842  -58.7538 C.3       11 UNK        -0.0850 
     18 CA         27.9881  -44.5737  -59.8379 C.3       10 UNK         0.0855 
     19 C          29.4480  -44.2767  -60.2952 C.2       10 UNK         0.5543 
     20 N          30.3667  -45.2342  -60.2615 N.am      10 UNK        -0.7343 
     21 O          29.7466  -43.1570  -60.7028 O.2       10 UNK        -0.5027 
     22 N          27.7164  -45.9664  -59.4488 N.am      10 UNK        -0.4495 
     23 C          27.5656  -46.9919  -60.2966 C.2       10 UNK         0.4903 
     24 O          27.6451  -46.8847  -61.5204 O.2       10 UNK        -0.4860 
     25 CA         27.2710  -48.3727  -59.6879 C.3       9 UNK         0.0227 
     26 CB         28.5168  -49.2720  -59.7364 C.3       9 UNK        -0.1964 
     27 N          26.7889  -48.2907  -58.3076 N.am      9 UNK        -0.4231 
     28 C          25.5075  -48.1249  -57.9530 C.2       9 UNK         0.5014 
     29 O          24.5847  -47.9921  -58.7596 O.2       9 UNK        -0.5270 
     30 CA         25.2209  -48.1198  -56.4378 C.3       8 UNK         0.0284 
     31 CB         23.7314  -48.3378  -56.0976 C.3       8 UNK        -0.1977 
     32 N          26.0734  -49.0643  -55.7054 N.am      8 UNK        -0.4342 
     33 C          26.1468  -50.3972  -55.8575 C.2       8 UNK         0.5039 
     34 O          25.4199  -51.0498  -56.6073 O.2       8 UNK        -0.5547 
     35 CA         27.2411  -51.1332  -55.0598 C.3       7 UNK         0.0281 
     36 CB         28.4437  -51.4223  -55.9695 C.3       7 UNK        -0.1963 
     37 N          27.7055  -50.3889  -53.8878 N.am      7 UNK        -0.4444 
     38 C          26.9693  -50.1563  -52.7932 C.2       7 UNK         0.5104 
     39 O          25.8507  -50.6326  -52.5989 O.2       7 UNK        -0.5100 
     40 CA         27.5707  -49.1924  -51.7623 C.3       6 UNK         0.0396 
     41 CB         28.4014  -49.9562  -50.7189 C.3       6 UNK        -0.1801 
     42 N          28.3940  -48.1555  -52.3921 N.am      6 UNK        -0.4747 
     43 C          27.9056  -47.0928  -53.0476 C.2       6 UNK         0.5012 
     44 O          26.7060  -46.9142  -53.2597 O.2       6 UNK        -0.5003 
     45 CA         28.9326  -46.0537  -53.5339 C.3       5 UNK         0.0782 
     46 C46        29.6274  -45.3460  -52.3359 C.3       11 UNK        -0.0868 
     47 S47        28.6419  -43.9316  -51.7298 S.3       11 UNK        -0.2515 
     48 C48        29.7688  -42.5104  -51.9495 C.3       11 UNK         0.0199 
     49 N          29.9050  -46.5953  -54.4852 N.am      5 UNK        -0.4607 
     50 C          29.6321  -47.0587  -55.7139 C.2       4 UNK         0.5031 
     51 O          28.4999  -47.2767  -56.1460 O.2       4 UNK        -0.5119 
     52 CA         30.8401  -47.3220  -56.6213 C.3       4 UNK         0.0263 
     53 CB         31.5944  -46.0184  -56.9348 C.3       4 UNK        -0.1967 
     54 N          31.7368  -48.2731  -55.9740 N.am      4 UNK        -0.4237 
     55 C          31.8166  -49.5758  -56.2774 C.2       3 UNK         0.4908 
     56 O          31.2874  -50.0806  -57.2674 O.2       3 UNK        -0.5102 
     57 CA         32.6075  -50.4866  -55.3160 C.3       3 UNK         0.0241 
     58 CB         33.9788  -50.8384  -55.9154 C.3       3 UNK        -0.1971 
     59 N          32.8033  -49.9229  -53.9768 N.am      3 UNK        -0.4139 
     60 C          31.8274  -49.6154  -53.1098 C.2       2 UNK         0.5016 
     61 O          30.6328  -49.8362  -53.3103 O.2       2 UNK        -0.5319 
     62 CA         32.2494  -48.8540  -51.8389 C.3       2 UNK         0.0286 
     63 CB         32.5089  -49.8344  -50.6853 C.3       2 UNK        -0.1963 
     64 N          33.4279  -47.9961  -52.0251 N.am      2 UNK        -0.4790 
     65 C          33.5334  -46.9955  -52.9146 C.2       1 UNK         0.5024 
     66 O          32.6062  -46.6812  -53.6611 O.2       1 UNK        -0.4888 
     67 H67        38.5255  -47.7877  -50.9023 H         1 UNK         0.0892 
     68 H68        37.3836  -46.8622  -49.9266 H         1 UNK         0.0892 
     69 H69        37.2452  -48.6194  -50.0158 H         1 UNK         0.0892 
     70 H70        35.8275  -45.8357  -51.1694 H         1 UNK         0.3107 
     71 H71        35.3604  -46.6332  -53.9160 H         1 UNK         0.0773 
     72 H72        35.5557  -44.1676  -52.8273 H         1 UNK         0.0680 
     73 H73        33.8339  -44.3442  -52.6541 H         1 UNK         0.0680 
     74 H74        34.3790  -42.0342  -54.0339 H         1 UNK         0.0650 
     75 H75        34.2014  -42.0162  -55.7677 H         1 UNK         0.0650 
     76 H76        32.4178  -42.5320  -52.5810 H         1 UNK         0.1397 
     77 H77        28.5311  -42.3624  -54.3832 H         1 UNK         0.1363 
     78 H78        32.0374  -42.5169  -56.8490 H         1 UNK         0.1355 
     79 H79        29.9222  -42.3034  -57.8903 H         1 UNK         0.0707 
     80 H80        28.6883  -41.4845  -56.9566 H         1 UNK         0.0707 
     81 H81        27.6316  -42.5510  -59.0751 H         1 UNK         0.1034 
     82 H82        26.4070  -43.6959  -58.6381 H         1 UNK         0.1034 
     83 H83        27.3825  -44.3780  -60.7249 H         1 UNK         0.0482 
     84 H84        31.3037  -45.0298  -60.5696 H         1 UNK         0.3460 
     85 H85        30.1234  -46.1604  -59.9543 H         1 UNK         0.3460 
     86 H86        27.6635  -46.1394  -58.4546 H         1 UNK         0.2989 
     87 H87        26.5009  -48.8416  -60.3042 H         1 UNK         0.0559 
     88 H88        29.3402  -48.8646  -59.1524 H         1 UNK         0.0848 
     89 H89        28.8730  -49.3903  -60.7606 H         1 UNK         0.0848 
     90 H90        28.3003  -50.2696  -59.3536 H         1 UNK         0.0848 
     91 H91        27.4830  -48.3008  -57.5665 H         1 UNK         0.3144 
     92 H92        25.4988  -47.1264  -56.0815 H         1 UNK         0.0727 
     93 H93        23.3641  -49.2916  -56.4773 H         1 UNK         0.0790 
     94 H94        23.1121  -47.5537  -56.5347 H         1 UNK         0.0790 
     95 H95        23.5655  -48.3184  -55.0204 H         1 UNK         0.0790 
     96 H96        26.7387  -48.6304  -55.0781 H         1 UNK         0.3215 
     97 H97        26.8247  -52.0832  -54.7181 H         1 UNK         0.0863 
     98 H98        28.8577  -50.5006  -56.3786 H         1 UNK         0.0808 
     99 H99        28.1544  -52.0499  -56.8134 H         1 UNK         0.0808 
    100 H100       29.2390  -51.9414  -55.4342 H         1 UNK         0.0808 
    101 H101       28.6500  -50.0160  -53.9120 H         1 UNK         0.3118 
    102 H102       26.7451  -48.7028  -51.2411 H         1 UNK         0.0546 
    103 H103       28.8340  -49.2813  -49.9804 H         1 UNK         0.0828 
    104 H104       29.2133  -50.5204  -51.1777 H         1 UNK         0.0828 
    105 H105       27.7792  -50.6708  -50.1785 H         1 UNK         0.0828 
    106 H106       29.3937  -48.3038  -52.3786 H         1 UNK         0.3005 
    107 H107       28.3745  -45.3025  -54.0990 H         1 UNK         0.1257 
    108 H108       30.6161  -44.9918  -52.6273 H         1 UNK         0.0775 
    109 H109       29.8165  -46.0252  -51.5027 H         1 UNK         0.0775 
    110 H110       29.2129  -41.5874  -51.7796 H         1 UNK         0.0840 
    111 H111       30.5340  -42.5539  -51.1729 H         1 UNK         0.0840 
    112 H112       30.8815  -46.4859  -54.2232 H         1 UNK         0.2987 
    113 H113       30.4714  -47.7238  -57.5646 H         1 UNK         0.0785 
    114 H114       32.0005  -45.5501  -56.0382 H         1 UNK         0.0798 
    115 H115       32.4227  -46.1959  -57.6203 H         1 UNK         0.0798 
    116 H116       30.9342  -45.2894  -57.4056 H         1 UNK         0.0798 
    117 H117       32.1993  -47.9391  -55.1358 H         1 UNK         0.3079 
    118 H118       32.0326  -51.4082  -55.2038 H         1 UNK         0.0794 
    119 H119       34.5134  -51.5551  -55.2916 H         1 UNK         0.0786 
    120 H120       34.6083  -49.9548  -56.0288 H         1 UNK         0.0786 
    121 H121       33.8697  -51.2899  -56.9026 H         1 UNK         0.0786 
    122 H122       33.7524  -49.6963  -53.7150 H         1 UNK         0.3032 
    123 H123       31.4174  -48.2065  -51.5564 H         1 UNK         0.1094 
    124 H124       33.3614  -50.4835  -50.8901 H         1 UNK         0.0794 
    125 H125       32.7052  -49.3063  -49.7519 H         1 UNK         0.0794 
    126 H126       31.6445  -50.4775  -50.5145 H         1 UNK         0.0794 
    127 H127       34.2372  -48.2054  -51.4583 H         1 UNK         0.3016 
@<TRIPOS>BOND
     1    1    2 1    
     2    1   67 1    
     3    1   68 1    
     4    1   69 1    
     5    2    3 2    
     6    2    4 am   BACKBONE|DICT|INTERRES
     7    4    5 1    
     8    4   70 1    
     9    5    6 1    
    10    5   65 1    
    11    5   71 1    
    12    6    7 1    
    13    6   72 1    
    14    6   73 1    
    15    7    8 1    
    16    8    9 1    
    17    8   74 1    
    18    8   75 1    
    19    9   10 ar   
    20    9   14 ar   
    21   10   11 ar   
    22   10   76 1    
    23   11   12 ar   
    24   11   48 1    
    25   12   13 ar   
    26   12   77 1    
    27   13   14 ar   
    28   13   15 1    
    29   14   78 1    
    30   15   16 1    
    31   15   79 1    
    32   15   80 1    
    33   16   17 1    
    34   17   18 1    
    35   17   81 1    
    36   17   82 1    
    37   18   19 1    
    38   18   22 1    
    39   18   83 1    
    40   19   20 am   BACKBONE|DICT|INTERRES
    41   19   21 2    
    42   20   84 1    
    43   20   85 1    
    44   22   23 am   BACKBONE|DICT|INTERRES
    45   22   86 1    
    46   23   24 2    
    47   23   25 1    
    48   25   26 1    
    49   25   27 1    
    50   25   87 1    
    51   26   88 1    
    52   26   89 1    
    53   26   90 1    
    54   27   28 am   BACKBONE|DICT|INTERRES
    55   27   91 1    
    56   28   29 2    
    57   28   30 1    
    58   30   31 1    
    59   30   32 1    
    60   30   92 1    
    61   31   93 1    
    62   31   94 1    
    63   31   95 1    
    64   32   33 am   BACKBONE|DICT|INTERRES
    65   32   96 1    
    66   33   34 2    
    67   33   35 1    
    68   35   36 1    
    69   35   37 1    
    70   35   97 1    
    71   36   98 1    
    72   36   99 1    
    73   36  100 1    
    74   37   38 am   BACKBONE|DICT|INTERRES
    75   37  101 1    
    76   38   39 2    
    77   38   40 1    
    78   40   41 1    
    79   40   42 1    
    80   40  102 1    
    81   41  103 1    
    82   41  104 1    
    83   41  105 1    
    84   42   43 am   BACKBONE|DICT|INTERRES
    85   42  106 1    
    86   43   44 2    
    87   43   45 1    
    88   45   46 1    
    89   45   49 1    
    90   45  107 1    
    91   46   47 1    
    92   46  108 1    
    93   46  109 1    
    94   47   48 1    
    95   48  110 1    
    96   48  111 1    
    97   49   50 am   BACKBONE|DICT|INTERRES
    98   49  112 1    
    99   50   51 2    
   100   50   52 1    
   101   52   53 1    
   102   52   54 1    
   103   52  113 1    
   104   53  114 1    
   105   53  115 1    
   106   53  116 1    
   107   54   55 am   BACKBONE|DICT|INTERRES
   108   54  117 1    
   109   55   56 2    
   110   55   57 1    
   111   57   58 1    
   112   57   59 1    
   113   57  118 1    
   114   58  119 1    
   115   58  120 1    
   116   58  121 1    
   117   59   60 am   BACKBONE|DICT|INTERRES
   118   59  122 1    
   119   60   61 2    
   120   60   62 1    
   121   62   63 1    
   122   62   64 1    
   123   62  123 1    
   124   63  124 1    
   125   63  125 1    
   126   63  126 1    
   127   64   65 am   BACKBONE|DICT|INTERRES
   128   64  127 1    
   129   65   66 2    
@<TRIPOS>SUBSTRUCTURE
     1 UNK         1 GROUP             0       ****    0 ROOT    
