@<TRIPOS>MOLECULE
3R134
127   129    1
SMALL
USER_CHARGES


@<TRIPOS>ATOM
      1 CA         29.4731  -44.9051  -49.3799 C.3       0 UNK        -0.1968 
      2 C          30.9850  -44.9110  -49.5531 C.2       0 UNK         0.4852 
      3 O          31.6700  -44.0789  -48.9564 O.2       0 UNK        -0.5359 
      4 N          31.4999  -45.8427  -50.3625 N.am      1 UNK        -0.4300 
      5 CA         32.9228  -46.0602  -50.6285 C.3       1 UNK         0.0863 
      6 C6         33.3406  -45.6227  -52.0594 C.3       11 UNK        -0.0953 
      7 S7         33.1216  -43.8382  -52.3613 S.3       11 UNK        -0.2369 
      8 C8         31.4922  -43.8013  -53.1912 C.3       11 UNK         0.0226 
      9 C9         31.4721  -44.1405  -54.6842 C.ar      11 UNK        -0.0699 
     10 C10        32.5887  -44.6199  -55.3841 C.ar      11 UNK        -0.0804 
     11 C11        32.5094  -44.8952  -56.7532 C.ar      11 UNK        -0.0871 
     12 C12        31.3069  -44.6842  -57.4308 C.ar      11 UNK        -0.1008 
     13 C13        30.1801  -44.2256  -56.7460 C.ar      11 UNK        -0.0735 
     14 C14        30.2707  -43.9575  -55.3771 C.ar      11 UNK        -0.0945 
     15 C15        28.8614  -44.0446  -57.4809 C.3       11 UNK         0.0169 
     16 S16        28.3655  -42.2943  -57.5399 S.3       11 UNK        -0.2669 
     17 C17        26.9564  -42.3428  -58.6985 C.3       11 UNK        -0.0850 
     18 CA         25.5867  -42.4448  -57.9790 C.3       10 UNK         0.0855 
     19 C          24.4289  -42.1797  -58.9799 C.2       10 UNK         0.5543 
     20 N          23.8178  -41.0042  -58.9293 N.am      10 UNK        -0.7343 
     21 O          24.1199  -43.0095  -59.8319 O.2       10 UNK        -0.5027 
     22 N          25.4480  -43.7387  -57.2975 N.am      10 UNK        -0.4495 
     23 C          24.4526  -44.0937  -56.4760 C.2       10 UNK         0.4903 
     24 O          23.5516  -43.3298  -56.1259 O.2       10 UNK        -0.4860 
     25 CA         24.4900  -45.5364  -55.9253 C.3       9 UNK         0.0227 
     26 CB         23.0842  -46.0813  -55.5950 C.3       9 UNK        -0.1964 
     27 N          25.2346  -46.4883  -56.7641 N.am      9 UNK        -0.4231 
     28 C          24.9568  -46.8520  -58.0292 C.2       9 UNK         0.5014 
     29 O          24.0065  -46.4145  -58.6776 O.2       9 UNK        -0.5270 
     30 CA         25.9028  -47.8662  -58.7022 C.3       8 UNK         0.0284 
     31 CB         26.9051  -47.1367  -59.6117 C.3       8 UNK        -0.1977 
     32 N          26.6354  -48.7013  -57.7474 N.am      8 UNK        -0.4342 
     33 C          26.0680  -49.6407  -56.9741 C.2       8 UNK         0.5039 
     34 O          24.8882  -49.9800  -57.0744 O.2       8 UNK        -0.5547 
     35 CA         26.9392  -50.3010  -55.8874 C.3       7 UNK         0.0281 
     36 CB         27.3227  -51.7299  -56.3037 C.3       7 UNK        -0.1963 
     37 N          28.1533  -49.5515  -55.5464 N.am      7 UNK        -0.4444 
     38 C          28.1781  -48.3139  -55.0249 C.2       7 UNK         0.5104 
     39 O          27.1648  -47.6663  -54.7590 O.2       7 UNK        -0.5100 
     40 CA         29.5560  -47.6591  -54.8174 C.3       6 UNK         0.0396 
     41 CB         30.0062  -47.8392  -53.3614 C.3       6 UNK        -0.1801 
     42 N          30.6015  -48.1571  -55.7179 N.am      6 UNK        -0.4747 
     43 C          30.5454  -48.1291  -57.0608 C.2       6 UNK         0.5012 
     44 O          29.6099  -47.6303  -57.6893 O.2       6 UNK        -0.5003 
     45 CA         31.6626  -48.8567  -57.8421 C.3       5 UNK         0.0782 
     46 C46        32.6756  -47.8736  -58.4836 C.3       11 UNK        -0.0868 
     47 S47        33.9217  -47.2112  -57.3203 S.3       11 UNK        -0.2515 
     48 C48        33.7286  -45.4108  -57.5010 C.3       11 UNK         0.0199 
     49 N          32.3323  -49.9130  -57.0734 N.am      5 UNK        -0.4607 
     50 C          31.7396  -50.9841  -56.5295 C.2       4 UNK         0.5031 
     51 O          30.5431  -51.2389  -56.6644 O.2       4 UNK        -0.5119 
     52 CA         32.6082  -51.9085  -55.6574 C.3       4 UNK         0.0263 
     53 CB         32.9931  -53.1727  -56.4426 C.3       4 UNK        -0.1967 
     54 N          33.8249  -51.2894  -55.1139 N.am      4 UNK        -0.4237 
     55 C          33.8605  -50.2391  -54.2813 C.2       3 UNK         0.4908 
     56 O          32.8661  -49.5915  -53.9449 O.2       3 UNK        -0.5102 
     57 CA         35.2536  -49.8199  -53.7837 C.3       3 UNK         0.0241 
     58 CB         35.8566  -48.7421  -54.6973 C.3       3 UNK        -0.1971 
     59 N          35.1992  -49.3015  -52.4186 N.am      3 UNK        -0.4139 
     60 C          35.0291  -50.0460  -51.3180 C.2       2 UNK         0.5016 
     61 O          34.9762  -51.2769  -51.3233 O.2       2 UNK        -0.5319 
     62 CA         34.9134  -49.2917  -49.9796 C.3       2 UNK         0.0286 
     63 CB         36.2609  -49.3011  -49.2389 C.3       2 UNK        -0.1963 
     64 N          34.4578  -47.9042  -50.1328 N.am      2 UNK        -0.4790 
     65 C          33.1972  -47.5597  -50.4283 C.2       1 UNK         0.5024 
     66 O          32.2804  -48.3749  -50.5629 O.2       1 UNK        -0.4888 
     67 H67        28.9907  -45.6824  -49.9725 H         1 UNK         0.0892 
     68 H68        29.2141  -45.0661  -48.3338 H         1 UNK         0.0892 
     69 H69        29.0649  -43.9430  -49.6884 H         1 UNK         0.0892 
     70 H70        30.9030  -46.5661  -50.7406 H         1 UNK         0.3107 
     71 H71        33.5260  -45.5148  -49.8994 H         1 UNK         0.0773 
     72 H72        34.3977  -45.8388  -52.2236 H         1 UNK         0.0680 
     73 H73        32.8050  -46.1863  -52.8227 H         1 UNK         0.0680 
     74 H74        31.0894  -42.7955  -53.0643 H         1 UNK         0.0650 
     75 H75        30.8068  -44.4702  -52.6707 H         1 UNK         0.0650 
     76 H76        33.5281  -44.7841  -54.8771 H         1 UNK         0.1397 
     77 H77        31.2417  -44.8945  -58.4892 H         1 UNK         0.1363 
     78 H78        29.3968  -43.5985  -54.8503 H         1 UNK         0.1355 
     79 H79        28.9362  -44.4342  -58.4973 H         1 UNK         0.0707 
     80 H80        28.0943  -44.6323  -56.9760 H         1 UNK         0.0707 
     81 H81        27.0039  -41.4232  -59.2856 H         1 UNK         0.1034 
     82 H82        27.0840  -43.1560  -59.4158 H         1 UNK         0.1034 
     83 H83        25.5511  -41.6727  -57.2075 H         1 UNK         0.0482 
     84 H84        24.0715  -40.3144  -58.2389 H         1 UNK         0.3460 
     85 H85        23.0765  -40.8081  -59.5837 H         1 UNK         0.3460 
     86 H86        26.1222  -44.4434  -57.5471 H         1 UNK         0.2989 
     87 H87        25.0440  -45.4791  -54.9872 H         1 UNK         0.0559 
     88 H88        22.4417  -46.1035  -56.4757 H         1 UNK         0.0848 
     89 H89        22.5878  -45.4615  -54.8473 H         1 UNK         0.0848 
     90 H90        23.1357  -47.0926  -55.1915 H         1 UNK         0.0848 
     91 H91        26.0201  -46.9348  -56.3000 H         1 UNK         0.3144 
     92 H92        25.2912  -48.5221  -59.3255 H         1 UNK         0.0727 
     93 H93        27.5482  -46.4627  -59.0456 H         1 UNK         0.0790 
     94 H94        26.3876  -46.5388  -60.3634 H         1 UNK         0.0790 
     95 H95        27.5455  -47.8410  -60.1430 H         1 UNK         0.0790 
     96 H96        27.6183  -48.4867  -57.6163 H         1 UNK         0.3215 
     97 H97        26.3302  -50.3607  -54.9830 H         1 UNK         0.0863 
     98 H98        27.8974  -52.2320  -55.5252 H         1 UNK         0.0808 
     99 H99        27.9182  -51.7363  -57.2174 H         1 UNK         0.0808 
    100 H100       26.4340  -52.3343  -56.4907 H         1 UNK         0.0808 
    101 H101       29.0359  -49.9992  -55.7708 H         1 UNK         0.3118 
    102 H102       29.4395  -46.5927  -55.0120 H         1 UNK         0.0546 
    103 H103       29.2636  -47.4416  -52.6683 H         1 UNK         0.0828 
    104 H104       30.9398  -47.3159  -53.1725 H         1 UNK         0.0828 
    105 H105       30.1605  -48.8900  -53.1123 H         1 UNK         0.0828 
    106 H106       31.4029  -48.5983  -55.2795 H         1 UNK         0.3005 
    107 H107       31.1470  -49.3620  -58.6621 H         1 UNK         0.1257 
    108 H108       32.1572  -47.0592  -58.9918 H         1 UNK         0.0775 
    109 H109       33.2234  -48.3946  -59.2702 H         1 UNK         0.0775 
    110 H110       34.6245  -44.9236  -57.1130 H         1 UNK         0.0840 
    111 H111       33.6785  -45.1476  -58.5588 H         1 UNK         0.0840 
    112 H112       33.3134  -49.7619  -56.8902 H         1 UNK         0.2987 
    113 H113       31.9919  -52.2094  -54.8076 H         1 UNK         0.0785 
    114 H114       32.1070  -53.6738  -56.8354 H         1 UNK         0.0798 
    115 H115       33.5133  -53.8919  -55.8095 H         1 UNK         0.0798 
    116 H116       33.6384  -52.9405  -57.2908 H         1 UNK         0.0798 
    117 H117       34.6965  -51.7402  -55.3541 H         1 UNK         0.3079 
    118 H118       35.9103  -50.6927  -53.7933 H         1 UNK         0.0794 
    119 H119       35.2566  -47.8310  -54.6934 H         1 UNK         0.0786 
    120 H120       35.9187  -49.0897  -55.7294 H         1 UNK         0.0786 
    121 H121       36.8672  -48.4778  -54.3857 H         1 UNK         0.0786 
    122 H122       35.1980  -48.2989  -52.3146 H         1 UNK         0.3032 
    123 H123       34.1843  -49.8300  -49.3690 H         1 UNK         0.1094 
    124 H124       37.0338  -48.7706  -49.7966 H         1 UNK         0.0794 
    125 H125       36.1770  -48.8383  -48.2554 H         1 UNK         0.0794 
    126 H126       36.6138  -50.3219  -49.0847 H         1 UNK         0.0794 
    127 H127       35.1548  -47.1806  -50.0211 H         1 UNK         0.3016 
@<TRIPOS>BOND
     1    1    2 1    
     2    1   67 1    
     3    1   68 1    
     4    1   69 1    
     5    2    3 2    
     6    2    4 am   BACKBONE|DICT|INTERRES
     7    4    5 1    
     8    4   70 1    
     9    5    6 1    
    10    5   65 1    
    11    5   71 1    
    12    6    7 1    
    13    6   72 1    
    14    6   73 1    
    15    7    8 1    
    16    8    9 1    
    17    8   74 1    
    18    8   75 1    
    19    9   10 ar   
    20    9   14 ar   
    21   10   11 ar   
    22   10   76 1    
    23   11   12 ar   
    24   11   48 1    
    25   12   13 ar   
    26   12   77 1    
    27   13   14 ar   
    28   13   15 1    
    29   14   78 1    
    30   15   16 1    
    31   15   79 1    
    32   15   80 1    
    33   16   17 1    
    34   17   18 1    
    35   17   81 1    
    36   17   82 1    
    37   18   19 1    
    38   18   22 1    
    39   18   83 1    
    40   19   20 am   BACKBONE|DICT|INTERRES
    41   19   21 2    
    42   20   84 1    
    43   20   85 1    
    44   22   23 am   BACKBONE|DICT|INTERRES
    45   22   86 1    
    46   23   24 2    
    47   23   25 1    
    48   25   26 1    
    49   25   27 1    
    50   25   87 1    
    51   26   88 1    
    52   26   89 1    
    53   26   90 1    
    54   27   28 am   BACKBONE|DICT|INTERRES
    55   27   91 1    
    56   28   29 2    
    57   28   30 1    
    58   30   31 1    
    59   30   32 1    
    60   30   92 1    
    61   31   93 1    
    62   31   94 1    
    63   31   95 1    
    64   32   33 am   BACKBONE|DICT|INTERRES
    65   32   96 1    
    66   33   34 2    
    67   33   35 1    
    68   35   36 1    
    69   35   37 1    
    70   35   97 1    
    71   36   98 1    
    72   36   99 1    
    73   36  100 1    
    74   37   38 am   BACKBONE|DICT|INTERRES
    75   37  101 1    
    76   38   39 2    
    77   38   40 1    
    78   40   41 1    
    79   40   42 1    
    80   40  102 1    
    81   41  103 1    
    82   41  104 1    
    83   41  105 1    
    84   42   43 am   BACKBONE|DICT|INTERRES
    85   42  106 1    
    86   43   44 2    
    87   43   45 1    
    88   45   46 1    
    89   45   49 1    
    90   45  107 1    
    91   46   47 1    
    92   46  108 1    
    93   46  109 1    
    94   47   48 1    
    95   48  110 1    
    96   48  111 1    
    97   49   50 am   BACKBONE|DICT|INTERRES
    98   49  112 1    
    99   50   51 2    
   100   50   52 1    
   101   52   53 1    
   102   52   54 1    
   103   52  113 1    
   104   53  114 1    
   105   53  115 1    
   106   53  116 1    
   107   54   55 am   BACKBONE|DICT|INTERRES
   108   54  117 1    
   109   55   56 2    
   110   55   57 1    
   111   57   58 1    
   112   57   59 1    
   113   57  118 1    
   114   58  119 1    
   115   58  120 1    
   116   58  121 1    
   117   59   60 am   BACKBONE|DICT|INTERRES
   118   59  122 1    
   119   60   61 2    
   120   60   62 1    
   121   62   63 1    
   122   62   64 1    
   123   62  123 1    
   124   63  124 1    
   125   63  125 1    
   126   63  126 1    
   127   64   65 am   BACKBONE|DICT|INTERRES
   128   64  127 1    
   129   65   66 2    
@<TRIPOS>SUBSTRUCTURE
     1 UNK         1 GROUP             0       ****    0 ROOT    
