@<TRIPOS>MOLECULE
3R134
127   129    1
SMALL
USER_CHARGES


@<TRIPOS>ATOM
      1 CA         36.4156  -48.0510  -55.3846 C.3       0 UNK        -0.1968 
      2 C          37.0100  -47.1518  -54.3025 C.2       0 UNK         0.4852 
      3 O          38.1259  -47.4073  -53.8535 O.2       0 UNK        -0.5359 
      4 N          36.3182  -46.0942  -53.8519 N.am      1 UNK        -0.4300 
      5 CA         34.9664  -45.6818  -54.2562 C.3       1 UNK         0.0863 
      6 C6         34.7615  -44.1559  -54.0531 C.3       11 UNK        -0.0953 
      7 S7         33.7831  -43.4001  -55.3941 S.3       11 UNK        -0.2369 
      8 C8         33.0274  -41.9794  -54.5444 C.3       11 UNK         0.0226 
      9 C9         31.5984  -42.2781  -54.1176 C.ar      11 UNK        -0.0699 
     10 C10        31.3256  -42.8055  -52.8517 C.ar      11 UNK        -0.0804 
     11 C11        30.0069  -43.0642  -52.4608 C.ar      11 UNK        -0.0871 
     12 C12        28.9609  -42.7904  -53.3471 C.ar      11 UNK        -0.1008 
     13 C13        29.2233  -42.2815  -54.6204 C.ar      11 UNK        -0.0735 
     14 C14        30.5430  -42.0148  -54.9954 C.ar      11 UNK        -0.0945 
     15 C15        28.0772  -42.0398  -55.5899 C.3       11 UNK         0.0169 
     16 S16        27.6683  -43.5584  -56.5070 S.3       11 UNK        -0.2669 
     17 C17        29.1088  -43.6971  -57.6209 C.3       11 UNK        -0.0850 
     18 CA         28.7158  -44.1972  -59.0318 C.3       10 UNK         0.0855 
     19 C          29.9300  -44.1016  -59.9988 C.2       10 UNK         0.5543 
     20 N          30.1137  -42.9596  -60.6468 N.am      10 UNK        -0.7343 
     21 O          30.7252  -45.0292  -60.1320 O.2       10 UNK        -0.5027 
     22 N          28.1254  -45.5406  -58.9615 N.am      10 UNK        -0.4495 
     23 C          27.6105  -46.2226  -59.9922 C.2       10 UNK         0.4903 
     24 O          27.5101  -45.7788  -61.1365 O.2       10 UNK        -0.4860 
     25 CA         27.1120  -47.6436  -59.6952 C.3       9 UNK         0.0227 
     26 CB         28.2301  -48.6662  -59.9555 C.3       9 UNK        -0.1964 
     27 N          26.6465  -47.7870  -58.3163 N.am      9 UNK        -0.4231 
     28 C          25.4074  -47.5186  -57.8847 C.2       9 UNK         0.5014 
     29 O          24.5076  -47.0839  -58.6066 O.2       9 UNK        -0.5270 
     30 CA         25.1377  -47.8130  -56.3936 C.3       8 UNK         0.0284 
     31 CB         23.6359  -47.9061  -56.0513 C.3       8 UNK        -0.1977 
     32 N          25.8636  -49.0011  -55.9239 N.am      8 UNK        -0.4342 
     33 C          25.7651  -50.2572  -56.3894 C.2       8 UNK         0.5039 
     34 O          24.9214  -50.6263  -57.2073 O.2       8 UNK        -0.5547 
     35 CA         26.8157  -51.2738  -55.9047 C.3       7 UNK         0.0281 
     36 CB         27.8489  -51.5287  -57.0152 C.3       7 UNK        -0.1963 
     37 N          27.5190  -50.8588  -54.6883 N.am      7 UNK        -0.4444 
     38 C          26.9740  -50.8626  -53.4645 C.2       7 UNK         0.5104 
     39 O          25.8374  -51.2690  -53.2207 O.2       7 UNK        -0.5100 
     40 CA         27.8307  -50.2914  -52.3236 C.3       6 UNK         0.0396 
     41 CB         28.8027  -51.3575  -51.7945 C.3       6 UNK        -0.1801 
     42 N          28.5799  -49.0890  -52.6995 N.am      6 UNK        -0.4747 
     43 C          28.0358  -47.9220  -53.0806 C.2       6 UNK         0.5012 
     44 O          26.8249  -47.7368  -53.2026 O.2       6 UNK        -0.5003 
     45 CA         29.0192  -46.7851  -53.4241 C.3       5 UNK         0.0782 
     46 C46        29.7457  -46.2623  -52.1564 C.3       11 UNK        -0.0868 
     47 S47        28.7010  -45.1577  -51.1504 S.3       11 UNK        -0.2515 
     48 C48        29.7131  -43.6412  -51.0816 C.3       11 UNK         0.0199 
     49 N          29.9725  -47.2091  -54.4501 N.am      5 UNK        -0.4607 
     50 C          29.6709  -47.6187  -55.6898 C.2       4 UNK         0.5031 
     51 O          28.5427  -47.5875  -56.1813 O.2       4 UNK        -0.5119 
     52 CA         30.8249  -48.2067  -56.5147 C.3       4 UNK         0.0263 
     53 CB         31.5670  -47.0981  -57.2758 C.3       4 UNK        -0.1967 
     54 N          31.7688  -48.9663  -55.6910 N.am      4 UNK        -0.4237 
     55 C          31.4814  -50.1278  -55.0841 C.2       3 UNK         0.4908 
     56 O          30.3971  -50.7023  -55.1799 O.2       3 UNK        -0.5102 
     57 CA         32.5755  -50.7238  -54.1821 C.3       3 UNK         0.0241 
     58 CB         33.6617  -51.4148  -55.0224 C.3       3 UNK        -0.1971 
     59 N          33.1877  -49.7221  -53.3047 N.am      3 UNK        -0.4139 
     60 C          32.5329  -49.0711  -52.3330 C.2       2 UNK         0.5016 
     61 O          31.3588  -49.2867  -52.0373 O.2       2 UNK        -0.5319 
     62 CA         33.2995  -47.9607  -51.5941 C.3       2 UNK         0.0286 
     63 CB         34.0757  -48.5451  -50.4037 C.3       2 UNK        -0.1963 
     64 N          34.2145  -47.1849  -52.4415 N.am      2 UNK        -0.4790 
     65 C          33.8653  -46.4956  -53.5404 C.2       1 UNK         0.5024 
     66 O          32.7279  -46.5062  -54.0067 O.2       1 UNK        -0.4888 
     67 H67        35.4265  -48.4114  -55.1103 H         1 UNK         0.0892 
     68 H68        36.3449  -47.5147  -56.3305 H         1 UNK         0.0892 
     69 H69        37.0494  -48.9230  -55.5455 H         1 UNK         0.0892 
     70 H70        36.7511  -45.5117  -53.1487 H         1 UNK         0.3107 
     71 H71        34.8653  -45.8948  -55.3219 H         1 UNK         0.0773 
     72 H72        34.3125  -43.9324  -53.0832 H         1 UNK         0.0680 
     73 H73        35.7216  -43.6370  -54.0558 H         1 UNK         0.0680 
     74 H74        33.6319  -41.6822  -53.6861 H         1 UNK         0.0650 
     75 H75        33.0356  -41.1263  -55.2245 H         1 UNK         0.0650 
     76 H76        32.1410  -43.0136  -52.1730 H         1 UNK         0.1397 
     77 H77        27.9406  -42.9970  -53.0535 H         1 UNK         0.1363 
     78 H78        30.7540  -41.6113  -55.9758 H         1 UNK         0.1355 
     79 H79        28.3190  -41.2347  -56.2856 H         1 UNK         0.0707 
     80 H80        27.1932  -41.7113  -55.0413 H         1 UNK         0.0707 
     81 H81        29.5863  -42.7195  -57.7007 H         1 UNK         0.1034 
     82 H82        29.8460  -44.3577  -57.1601 H         1 UNK         0.1034 
     83 H83        27.9371  -43.5376  -59.4204 H         1 UNK         0.0482 
     84 H84        29.4720  -42.1891  -60.5422 H         1 UNK         0.3460 
     85 H85        30.9035  -42.8716  -61.2670 H         1 UNK         0.3460 
     86 H86        28.1463  -45.9828  -58.0538 H         1 UNK         0.2989 
     87 H87        26.2864  -47.8617  -60.3760 H         1 UNK         0.0559 
     88 H88        29.0956  -48.4923  -59.3155 H         1 UNK         0.0848 
     89 H89        28.5747  -48.6106  -60.9891 H         1 UNK         0.0848 
     90 H90        27.8836  -49.6856  -59.7847 H         1 UNK         0.0848 
     91 H91        27.3358  -48.0463  -57.6158 H         1 UNK         0.3144 
     92 H92        25.5519  -46.9690  -55.8395 H         1 UNK         0.0727 
     93 H93        23.4844  -48.1076  -54.9909 H         1 UNK         0.0790 
     94 H94        23.1385  -48.6938  -56.6179 H         1 UNK         0.0790 
     95 H95        23.1251  -46.9699  -56.2794 H         1 UNK         0.0790 
     96 H96        26.5936  -48.8098  -55.2482 H         1 UNK         0.3215 
     97 H97        26.2941  -52.2112  -55.6994 H         1 UNK         0.0863 
     98 H98        28.5635  -52.2984  -56.7231 H         1 UNK         0.0808 
     99 H99        28.4106  -50.6255  -57.2565 H         1 UNK         0.0808 
    100 H100       27.3650  -51.8675  -57.9323 H         1 UNK         0.0808 
    101 H101       28.4919  -50.5793  -54.7921 H         1 UNK         0.3118 
    102 H102       27.1560  -50.0147  -51.5110 H         1 UNK         0.0546 
    103 H103       29.5371  -51.6429  -52.5488 H         1 UNK         0.0828 
    104 H104       28.2697  -52.2614  -51.4965 H         1 UNK         0.0828 
    105 H105       29.3463  -50.9986  -50.9204 H         1 UNK         0.0828 
    106 H106       29.5933  -49.1466  -52.6081 H         1 UNK         0.3005 
    107 H107       28.4424  -45.9656  -53.8603 H         1 UNK         0.1257 
    108 H108       30.6480  -45.7222  -52.4447 H         1 UNK         0.0775 
    109 H109       30.0900  -47.0768  -51.5191 H         1 UNK         0.0775 
    110 H110       29.1859  -42.8914  -50.4902 H         1 UNK         0.0840 
    111 H111       30.6376  -43.8618  -50.5455 H         1 UNK         0.0840 
    112 H112       30.9522  -47.1931  -54.1830 H         1 UNK         0.2987 
    113 H113       30.3938  -48.8936  -57.2455 H         1 UNK         0.0785 
    114 H114       32.0047  -46.3599  -56.6025 H         1 UNK         0.0798 
    115 H115       30.8851  -46.5672  -57.9398 H         1 UNK         0.0798 
    116 H116       32.3658  -47.5052  -57.8957 H         1 UNK         0.0798 
    117 H117       32.6620  -48.5335  -55.5119 H         1 UNK         0.3079 
    118 H118       32.1040  -51.4786  -53.5488 H         1 UNK         0.0794 
    119 H119       33.2257  -52.1790  -55.6676 H         1 UNK         0.0786 
    120 H120       34.3970  -51.9110  -54.3887 H         1 UNK         0.0786 
    121 H121       34.1922  -50.7112  -55.6650 H         1 UNK         0.0786 
    122 H122       34.1598  -49.5009  -53.4571 H         1 UNK         0.3032 
    123 H123       32.5544  -47.2651  -51.2027 H         1 UNK         0.1094 
    124 H124       34.5279  -47.7585  -49.7994 H         1 UNK         0.0794 
    125 H125       33.4142  -49.1131  -49.7476 H         1 UNK         0.0794 
    126 H126       34.8697  -49.2188  -50.7283 H         1 UNK         0.0794 
    127 H127       35.1741  -47.1253  -52.1315 H         1 UNK         0.3016 
@<TRIPOS>BOND
     1    1    2 1    
     2    1   67 1    
     3    1   68 1    
     4    1   69 1    
     5    2    3 2    
     6    2    4 am   BACKBONE|DICT|INTERRES
     7    4    5 1    
     8    4   70 1    
     9    5    6 1    
    10    5   65 1    
    11    5   71 1    
    12    6    7 1    
    13    6   72 1    
    14    6   73 1    
    15    7    8 1    
    16    8    9 1    
    17    8   74 1    
    18    8   75 1    
    19    9   10 ar   
    20    9   14 ar   
    21   10   11 ar   
    22   10   76 1    
    23   11   12 ar   
    24   11   48 1    
    25   12   13 ar   
    26   12   77 1    
    27   13   14 ar   
    28   13   15 1    
    29   14   78 1    
    30   15   16 1    
    31   15   79 1    
    32   15   80 1    
    33   16   17 1    
    34   17   18 1    
    35   17   81 1    
    36   17   82 1    
    37   18   19 1    
    38   18   22 1    
    39   18   83 1    
    40   19   20 am   BACKBONE|DICT|INTERRES
    41   19   21 2    
    42   20   84 1    
    43   20   85 1    
    44   22   23 am   BACKBONE|DICT|INTERRES
    45   22   86 1    
    46   23   24 2    
    47   23   25 1    
    48   25   26 1    
    49   25   27 1    
    50   25   87 1    
    51   26   88 1    
    52   26   89 1    
    53   26   90 1    
    54   27   28 am   BACKBONE|DICT|INTERRES
    55   27   91 1    
    56   28   29 2    
    57   28   30 1    
    58   30   31 1    
    59   30   32 1    
    60   30   92 1    
    61   31   93 1    
    62   31   94 1    
    63   31   95 1    
    64   32   33 am   BACKBONE|DICT|INTERRES
    65   32   96 1    
    66   33   34 2    
    67   33   35 1    
    68   35   36 1    
    69   35   37 1    
    70   35   97 1    
    71   36   98 1    
    72   36   99 1    
    73   36  100 1    
    74   37   38 am   BACKBONE|DICT|INTERRES
    75   37  101 1    
    76   38   39 2    
    77   38   40 1    
    78   40   41 1    
    79   40   42 1    
    80   40  102 1    
    81   41  103 1    
    82   41  104 1    
    83   41  105 1    
    84   42   43 am   BACKBONE|DICT|INTERRES
    85   42  106 1    
    86   43   44 2    
    87   43   45 1    
    88   45   46 1    
    89   45   49 1    
    90   45  107 1    
    91   46   47 1    
    92   46  108 1    
    93   46  109 1    
    94   47   48 1    
    95   48  110 1    
    96   48  111 1    
    97   49   50 am   BACKBONE|DICT|INTERRES
    98   49  112 1    
    99   50   51 2    
   100   50   52 1    
   101   52   53 1    
   102   52   54 1    
   103   52  113 1    
   104   53  114 1    
   105   53  115 1    
   106   53  116 1    
   107   54   55 am   BACKBONE|DICT|INTERRES
   108   54  117 1    
   109   55   56 2    
   110   55   57 1    
   111   57   58 1    
   112   57   59 1    
   113   57  118 1    
   114   58  119 1    
   115   58  120 1    
   116   58  121 1    
   117   59   60 am   BACKBONE|DICT|INTERRES
   118   59  122 1    
   119   60   61 2    
   120   60   62 1    
   121   62   63 1    
   122   62   64 1    
   123   62  123 1    
   124   63  124 1    
   125   63  125 1    
   126   63  126 1    
   127   64   65 am   BACKBONE|DICT|INTERRES
   128   64  127 1    
   129   65   66 2    
@<TRIPOS>SUBSTRUCTURE
     1 UNK         1 GROUP             0       ****    0 ROOT    
