@<TRIPOS>MOLECULE
3R134
127   129    1
SMALL
USER_CHARGES


@<TRIPOS>ATOM
      1 CA         36.5348  -41.4303  -49.0763 C.3       0 UNK        -0.1968 
      2 C          37.0194  -42.5909  -49.9331 C.2       0 UNK         0.4852 
      3 O          37.8511  -43.3797  -49.4802 O.2       0 UNK        -0.5359 
      4 N          36.5137  -42.6949  -51.1683 N.am      1 UNK        -0.4300 
      5 CA         36.7990  -43.7851  -52.1049 C.3       1 UNK         0.0863 
      6 C6         36.4504  -43.3909  -53.5662 C.3       11 UNK        -0.0953 
      7 S7         34.7181  -42.8588  -53.8092 S.3       11 UNK        -0.2369 
      8 C8         34.0028  -44.3383  -54.5892 C.3       11 UNK         0.0226 
      9 C9         32.4968  -44.3794  -54.3935 C.ar      11 UNK        -0.0699 
     10 C10        31.9565  -45.0202  -53.2752 C.ar      11 UNK        -0.0804 
     11 C11        30.5728  -45.0653  -53.0809 C.ar      11 UNK        -0.0871 
     12 C12        29.7260  -44.4606  -54.0149 C.ar      11 UNK        -0.1008 
     13 C13        30.2577  -43.8027  -55.1294 C.ar      11 UNK        -0.0735 
     14 C14        31.6430  -43.7723  -55.3185 C.ar      11 UNK        -0.0945 
     15 C15        29.3397  -43.0938  -56.1117 C.3       11 UNK         0.0169 
     16 S16        28.9023  -44.1708  -57.5064 S.3       11 UNK        -0.2669 
     17 C17        27.7590  -43.0775  -58.4199 C.3       11 UNK        -0.0850 
     18 CA         26.2812  -43.2759  -57.9961 C.3       10 UNK         0.0855 
     19 C          25.3542  -42.2731  -58.7343 C.2       10 UNK         0.5543 
     20 N          25.1334  -41.0980  -58.1614 N.am      10 UNK        -0.7343 
     21 O          24.8729  -42.5312  -59.8361 O.2       10 UNK        -0.5027 
     22 N          25.8640  -44.6693  -58.1816 N.am      10 UNK        -0.4495 
     23 C          24.7622  -45.2356  -57.6836 C.2       10 UNK         0.4903 
     24 O          23.9451  -44.6381  -56.9821 O.2       10 UNK        -0.4860 
     25 CA         24.5378  -46.7309  -57.9786 C.3       9 UNK         0.0227 
     26 CB         23.5659  -46.9267  -59.1581 C.3       9 UNK        -0.1964 
     27 N          25.7660  -47.5229  -58.1526 N.am      9 UNK        -0.4231 
     28 C          26.6649  -47.4967  -59.1493 C.2       9 UNK         0.5014 
     29 O          26.6149  -46.7171  -60.1011 O.2       9 UNK        -0.5270 
     30 CA         27.8337  -48.4939  -59.0628 C.3       8 UNK         0.0284 
     31 CB         29.0236  -47.8670  -58.3182 C.3       8 UNK        -0.1977 
     32 N          27.4700  -49.7553  -58.4150 N.am      8 UNK        -0.4342 
     33 C          26.6116  -50.6591  -58.9089 C.2       8 UNK         0.5039 
     34 O          26.0567  -50.5573  -60.0036 O.2       8 UNK        -0.5547 
     35 CA         26.3109  -51.8754  -58.0211 C.3       7 UNK         0.0281 
     36 CB         27.4012  -52.9485  -58.1763 C.3       7 UNK        -0.1963 
     37 N          26.1944  -51.4862  -56.6141 N.am      7 UNK        -0.4444 
     38 C          25.0761  -51.0013  -56.0573 C.2       7 UNK         0.5104 
     39 O          24.0039  -50.8968  -56.6533 O.2       7 UNK        -0.5100 
     40 CA         25.1598  -50.5520  -54.5868 C.3       6 UNK         0.0396 
     41 CB         24.7558  -51.7030  -53.6521 C.3       6 UNK        -0.1801 
     42 N          26.4810  -50.0521  -54.1957 N.am      6 UNK        -0.4747 
     43 C          27.0245  -48.9070  -54.6345 C.2       6 UNK         0.5012 
     44 O          26.4708  -48.1501  -55.4310 O.2       6 UNK        -0.5003 
     45 CA         28.4434  -48.5770  -54.1264 C.3       5 UNK         0.0782 
     46 C46        28.3577  -47.8708  -52.7489 C.3       11 UNK        -0.0868 
     47 S47        29.9854  -47.5435  -51.9863 S.3       11 UNK        -0.2515 
     48 C48        30.0085  -45.7308  -51.8355 C.3       11 UNK         0.0199 
     49 N          29.3466  -49.7382  -54.1031 N.am      5 UNK        -0.4607 
     50 C          29.5953  -50.5782  -55.1162 C.2       4 UNK         0.5031 
     51 O          28.9843  -50.5648  -56.1850 O.2       4 UNK        -0.5119 
     52 CA         30.7713  -51.5485  -54.9214 C.3       4 UNK         0.0263 
     53 CB         30.7416  -52.7181  -55.9228 C.3       4 UNK        -0.1967 
     54 N          32.0176  -50.8019  -55.0900 N.am      4 UNK        -0.4237 
     55 C          32.5939  -50.0725  -54.1280 C.2       3 UNK         0.4908 
     56 O          32.2393  -50.0929  -52.9456 O.2       3 UNK        -0.5102 
     57 CA         33.7092  -49.1219  -54.5739 C.3       3 UNK         0.0241 
     58 CB         33.1232  -47.9585  -55.4030 C.3       3 UNK        -0.1971 
     59 N          34.3778  -48.6133  -53.3798 N.am      3 UNK        -0.4139 
     60 C          35.5504  -47.9762  -53.3483 C.2       2 UNK         0.5016 
     61 O          36.2306  -47.7297  -54.3482 O.2       2 UNK        -0.5319 
     62 CA         36.0658  -47.5539  -51.9666 C.3       2 UNK         0.0286 
     63 CB         37.1200  -48.5500  -51.4558 C.3       2 UNK        -0.1963 
     64 N          36.6734  -46.2293  -52.0845 N.am      2 UNK        -0.4790 
     65 C          36.0961  -45.0929  -51.6794 C.2       1 UNK         0.5024 
     66 O          35.0403  -45.0522  -51.0414 O.2       1 UNK        -0.4888 
     67 H67        35.8160  -40.8050  -49.6058 H         1 UNK         0.0892 
     68 H68        36.0558  -41.8061  -48.1726 H         1 UNK         0.0892 
     69 H69        37.3763  -40.8039  -48.7816 H         1 UNK         0.0892 
     70 H70        35.8059  -42.0434  -51.4766 H         1 UNK         0.3107 
     71 H71        37.8749  -43.9708  -52.0665 H         1 UNK         0.0773 
     72 H72        36.6875  -44.2042  -54.2549 H         1 UNK         0.0680 
     73 H73        37.0895  -42.5616  -53.8732 H         1 UNK         0.0680 
     74 H74        34.4487  -45.2372  -54.1626 H         1 UNK         0.0650 
     75 H75        34.2519  -44.3457  -55.6513 H         1 UNK         0.0650 
     76 H76        32.6158  -45.4797  -52.5506 H         1 UNK         0.1397 
     77 H77        28.6550  -44.4838  -53.8660 H         1 UNK         0.1363 
     78 H78        32.0571  -43.2649  -56.1792 H         1 UNK         0.1355 
     79 H79        28.4293  -42.7685  -55.6056 H         1 UNK         0.0707 
     80 H80        29.8239  -42.1909  -56.4873 H         1 UNK         0.0707 
     81 H81        28.0665  -42.0395  -58.2783 H         1 UNK         0.1034 
     82 H82        27.8768  -43.2801  -59.4863 H         1 UNK         0.1034 
     83 H83        26.2093  -43.0657  -56.9270 H         1 UNK         0.0482 
     84 H84        24.5474  -40.4261  -58.6322 H         1 UNK         0.3460 
     85 H85        25.5291  -40.8721  -57.2620 H         1 UNK         0.3460 
     86 H86        26.4303  -45.2278  -58.8098 H         1 UNK         0.2989 
     87 H87        24.0592  -47.1477  -57.0909 H         1 UNK         0.0559 
     88 H88        22.6112  -46.4381  -58.9591 H         1 UNK         0.0848 
     89 H89        23.3605  -47.9832  -59.3311 H         1 UNK         0.0848 
     90 H90        23.9568  -46.5037  -60.0840 H         1 UNK         0.0848 
     91 H91        25.9932  -48.1054  -57.3518 H         1 UNK         0.3144 
     92 H92        28.1496  -48.7234  -60.0825 H         1 UNK         0.0727 
     93 H93        28.7588  -47.5857  -57.2985 H         1 UNK         0.0790 
     94 H94        29.3672  -46.9646  -58.8255 H         1 UNK         0.0790 
     95 H95        29.8697  -48.5527  -58.2679 H         1 UNK         0.0790 
     96 H96        27.9387  -49.9695  -57.5357 H         1 UNK         0.3215 
     97 H97        25.3642  -52.3085  -58.3522 H         1 UNK         0.0863 
     98 H98        27.1888  -53.8227  -57.5607 H         1 UNK         0.0808 
     99 H99        28.3860  -52.5729  -57.8983 H         1 UNK         0.0808 
    100 H100       27.4649  -53.2884  -59.2108 H         1 UNK         0.0808 
    101 H101       27.0512  -51.4691  -56.0752 H         1 UNK         0.3118 
    102 H102       24.4421  -49.7397  -54.4523 H         1 UNK         0.0546 
    103 H103       25.4473  -52.5436  -53.7221 H         1 UNK         0.0828 
    104 H104       23.7621  -52.0778  -53.9023 H         1 UNK         0.0828 
    105 H105       24.7240  -51.3783  -52.6120 H         1 UNK         0.0828 
    106 H106       27.0156  -50.6198  -53.5533 H         1 UNK         0.3005 
    107 H107       28.8754  -47.8679  -54.8358 H         1 UNK         0.1257 
    108 H108       27.7933  -48.4811  -52.0410 H         1 UNK         0.0775 
    109 H109       27.8045  -46.9346  -52.8443 H         1 UNK         0.0775 
    110 H110       29.0109  -45.3545  -51.6043 H         1 UNK         0.0840 
    111 H111       30.6300  -45.4651  -50.9789 H         1 UNK         0.0840 
    112 H112       29.9484  -49.7929  -53.2901 H         1 UNK         0.2987 
    113 H113       30.7134  -51.9644  -53.9130 H         1 UNK         0.0785 
    114 H114       29.8145  -53.2854  -55.8307 H         1 UNK         0.0798 
    115 H115       31.5637  -53.4113  -55.7445 H         1 UNK         0.0798 
    116 H116       30.8132  -52.3741  -56.9555 H         1 UNK         0.0798 
    117 H117       32.3542  -50.7068  -56.0377 H         1 UNK         0.3079 
    118 H118       34.4294  -49.6835  -55.1726 H         1 UNK         0.0794 
    119 H119       33.8948  -47.2559  -55.7167 H         1 UNK         0.0786 
    120 H120       32.3742  -47.4031  -54.8374 H         1 UNK         0.0786 
    121 H121       32.6387  -48.3206  -56.3104 H         1 UNK         0.0786 
    122 H122       33.8809  -48.8271  -52.5221 H         1 UNK         0.3032 
    123 H123       35.2320  -47.5372  -51.2604 H         1 UNK         0.1094 
    124 H124       37.9688  -48.6278  -52.1366 H         1 UNK         0.0794 
    125 H125       37.5011  -48.2549  -50.4779 H         1 UNK         0.0794 
    126 H126       36.6941  -49.5486  -51.3497 H         1 UNK         0.0794 
    127 H127       37.4988  -46.1802  -52.6665 H         1 UNK         0.3016 
@<TRIPOS>BOND
     1    1    2 1    
     2    1   67 1    
     3    1   68 1    
     4    1   69 1    
     5    2    3 2    
     6    2    4 am   BACKBONE|DICT|INTERRES
     7    4    5 1    
     8    4   70 1    
     9    5    6 1    
    10    5   65 1    
    11    5   71 1    
    12    6    7 1    
    13    6   72 1    
    14    6   73 1    
    15    7    8 1    
    16    8    9 1    
    17    8   74 1    
    18    8   75 1    
    19    9   10 ar   
    20    9   14 ar   
    21   10   11 ar   
    22   10   76 1    
    23   11   12 ar   
    24   11   48 1    
    25   12   13 ar   
    26   12   77 1    
    27   13   14 ar   
    28   13   15 1    
    29   14   78 1    
    30   15   16 1    
    31   15   79 1    
    32   15   80 1    
    33   16   17 1    
    34   17   18 1    
    35   17   81 1    
    36   17   82 1    
    37   18   19 1    
    38   18   22 1    
    39   18   83 1    
    40   19   20 am   BACKBONE|DICT|INTERRES
    41   19   21 2    
    42   20   84 1    
    43   20   85 1    
    44   22   23 am   BACKBONE|DICT|INTERRES
    45   22   86 1    
    46   23   24 2    
    47   23   25 1    
    48   25   26 1    
    49   25   27 1    
    50   25   87 1    
    51   26   88 1    
    52   26   89 1    
    53   26   90 1    
    54   27   28 am   BACKBONE|DICT|INTERRES
    55   27   91 1    
    56   28   29 2    
    57   28   30 1    
    58   30   31 1    
    59   30   32 1    
    60   30   92 1    
    61   31   93 1    
    62   31   94 1    
    63   31   95 1    
    64   32   33 am   BACKBONE|DICT|INTERRES
    65   32   96 1    
    66   33   34 2    
    67   33   35 1    
    68   35   36 1    
    69   35   37 1    
    70   35   97 1    
    71   36   98 1    
    72   36   99 1    
    73   36  100 1    
    74   37   38 am   BACKBONE|DICT|INTERRES
    75   37  101 1    
    76   38   39 2    
    77   38   40 1    
    78   40   41 1    
    79   40   42 1    
    80   40  102 1    
    81   41  103 1    
    82   41  104 1    
    83   41  105 1    
    84   42   43 am   BACKBONE|DICT|INTERRES
    85   42  106 1    
    86   43   44 2    
    87   43   45 1    
    88   45   46 1    
    89   45   49 1    
    90   45  107 1    
    91   46   47 1    
    92   46  108 1    
    93   46  109 1    
    94   47   48 1    
    95   48  110 1    
    96   48  111 1    
    97   49   50 am   BACKBONE|DICT|INTERRES
    98   49  112 1    
    99   50   51 2    
   100   50   52 1    
   101   52   53 1    
   102   52   54 1    
   103   52  113 1    
   104   53  114 1    
   105   53  115 1    
   106   53  116 1    
   107   54   55 am   BACKBONE|DICT|INTERRES
   108   54  117 1    
   109   55   56 2    
   110   55   57 1    
   111   57   58 1    
   112   57   59 1    
   113   57  118 1    
   114   58  119 1    
   115   58  120 1    
   116   58  121 1    
   117   59   60 am   BACKBONE|DICT|INTERRES
   118   59  122 1    
   119   60   61 2    
   120   60   62 1    
   121   62   63 1    
   122   62   64 1    
   123   62  123 1    
   124   63  124 1    
   125   63  125 1    
   126   63  126 1    
   127   64   65 am   BACKBONE|DICT|INTERRES
   128   64  127 1    
   129   65   66 2    
@<TRIPOS>SUBSTRUCTURE
     1 UNK         1 GROUP             0       ****    0 ROOT    
