@<TRIPOS>MOLECULE
3R134
127   129    1
SMALL
USER_CHARGES


@<TRIPOS>ATOM
      1 CA         39.0333  -45.3738  -53.2935 C.3       0 UNK        -0.1968 
      2 C          37.5634  -45.5521  -52.9422 C.2       0 UNK         0.4852 
      3 O          37.2073  -45.4728  -51.7658 O.2       0 UNK        -0.5359 
      4 N          36.7184  -45.7986  -53.9550 N.am      1 UNK        -0.4300 
      5 CA         35.2607  -45.9828  -53.8597 C.3       1 UNK         0.0863 
      6 C6         34.5029  -44.7044  -53.4027 C.3       11 UNK        -0.0953 
      7 S7         34.6809  -43.3467  -54.6038 S.3       11 UNK        -0.2369 
      8 C8         33.3977  -42.1898  -54.0273 C.3       11 UNK         0.0226 
      9 C9         31.9852  -42.7314  -54.2139 C.ar      11 UNK        -0.0699 
     10 C10        31.1818  -43.0068  -53.1021 C.ar      11 UNK        -0.0804 
     11 C11        29.8692  -43.4625  -53.2655 C.ar      11 UNK        -0.0871 
     12 C12        29.3658  -43.6517  -54.5558 C.ar      11 UNK        -0.1008 
     13 C13        30.1609  -43.3868  -55.6747 C.ar      11 UNK        -0.0735 
     14 C14        31.4682  -42.9242  -55.4986 C.ar      11 UNK        -0.0945 
     15 C15        29.5945  -43.5821  -57.0710 C.3       11 UNK         0.0169 
     16 S16        28.5457  -42.1703  -57.5389 S.3       11 UNK        -0.2669 
     17 C17        27.8990  -42.7086  -59.1586 C.3       11 UNK        -0.0850 
     18 CA         26.4598  -43.2820  -59.0643 C.3       10 UNK         0.0855 
     19 C          25.8515  -43.4965  -60.4827 C.2       10 UNK         0.5543 
     20 N          25.5231  -44.7136  -60.9015 N.am      10 UNK        -0.7343 
     21 O          25.6694  -42.5302  -61.2190 O.2       10 UNK        -0.5027 
     22 N          26.4201  -44.4699  -58.2005 N.am      10 UNK        -0.4495 
     23 C          25.3295  -44.9830  -57.6200 C.2       10 UNK         0.4903 
     24 O          24.2189  -44.4512  -57.6547 O.2       10 UNK        -0.4860 
     25 CA         25.5269  -46.3252  -56.8833 C.3       9 UNK         0.0227 
     26 CB         24.2258  -47.1471  -56.7796 C.3       9 UNK        -0.1964 
     27 N          26.6114  -47.1493  -57.4389 N.am      9 UNK        -0.4231 
     28 C          26.7282  -47.5962  -58.7005 C.2       9 UNK         0.5014 
     29 O          25.9179  -47.3551  -59.5960 O.2       9 UNK        -0.5270 
     30 CA         27.9751  -48.4259  -59.0256 C.3       8 UNK         0.0284 
     31 CB         29.1984  -47.5129  -59.2253 C.3       8 UNK        -0.1977 
     32 N          28.2448  -49.3956  -57.9623 N.am      8 UNK        -0.4342 
     33 C          28.0383  -50.7139  -58.0720 C.2       8 UNK         0.5039 
     34 O          27.6420  -51.2668  -59.0993 O.2       8 UNK        -0.5547 
     35 CA         28.3277  -51.5734  -56.8319 C.3       7 UNK         0.0281 
     36 CB         29.8226  -51.9247  -56.7537 C.3       7 UNK        -0.1963 
     37 N          27.9015  -50.9600  -55.5719 N.am      7 UNK        -0.4444 
     38 C          26.6231  -50.8016  -55.1969 C.2       7 UNK         0.5104 
     39 O          25.6597  -51.0719  -55.9140 O.2       7 UNK        -0.5100 
     40 CA         26.3720  -50.2770  -53.7750 C.3       6 UNK         0.0396 
     41 CB         26.5926  -51.3965  -52.7441 C.3       6 UNK        -0.1801 
     42 N          27.2536  -49.1540  -53.4620 N.am      6 UNK        -0.4747 
     43 C          26.8715  -47.8699  -53.3981 C.2       6 UNK         0.5012 
     44 O          25.7054  -47.4944  -53.5174 O.2       6 UNK        -0.5003 
     45 CA         27.9769  -46.8149  -53.1705 C.3       5 UNK         0.0782 
     46 C46        27.9866  -46.3503  -51.6917 C.3       11 UNK        -0.0868 
     47 S47        29.4004  -45.2855  -51.2345 S.3       11 UNK        -0.2515 
     48 C48        28.9921  -43.7077  -52.0447 C.3       11 UNK         0.0199 
     49 N          29.2978  -47.2621  -53.6167 N.am      5 UNK        -0.4607 
     50 C          29.6332  -47.5742  -54.8727 C.2       4 UNK         0.5031 
     51 O          28.8560  -47.5217  -55.8256 O.2       4 UNK        -0.5119 
     52 CA         31.0579  -48.0995  -55.0906 C.3       4 UNK         0.0263 
     53 CB         31.9902  -46.9427  -55.4748 C.3       4 UNK        -0.1967 
     54 N          31.6015  -48.8297  -53.9355 N.am      4 UNK        -0.4237 
     55 C          31.0734  -49.9537  -53.4213 C.2       3 UNK         0.4908 
     56 O          30.0090  -50.4336  -53.8166 O.2       3 UNK        -0.5102 
     57 CA         31.8071  -50.6421  -52.2513 C.3       3 UNK         0.0241 
     58 CB         31.7585  -52.1805  -52.3681 C.3       3 UNK        -0.1971 
     59 N          33.1804  -50.1706  -52.0254 N.am      3 UNK        -0.4139 
     60 C          34.2351  -50.2760  -52.8480 C.2       2 UNK         0.5016 
     61 O          34.2159  -50.8415  -53.9427 O.2       2 UNK        -0.5319 
     62 CA         35.5186  -49.5611  -52.3863 C.3       2 UNK         0.0286 
     63 CB         36.7631  -50.4383  -52.6088 C.3       2 UNK        -0.1963 
     64 N          35.7087  -48.2782  -53.0717 N.am      2 UNK        -0.4790 
     65 C          34.8588  -47.2388  -53.0499 C.2       1 UNK         0.5024 
     66 O          33.7844  -47.2614  -52.4463 O.2       1 UNK        -0.4888 
     67 H67        39.6353  -46.1237  -52.7810 H         1 UNK         0.0892 
     68 H68        39.3762  -44.3884  -52.9794 H         1 UNK         0.0892 
     69 H69        39.2129  -45.4689  -54.3643 H         1 UNK         0.0892 
     70 H70        37.0895  -45.8433  -54.8942 H         1 UNK         0.3107 
     71 H71        34.9334  -46.2006  -54.8768 H         1 UNK         0.0773 
     72 H72        34.8499  -44.3664  -52.4254 H         1 UNK         0.0680 
     73 H73        33.4369  -44.9039  -53.2910 H         1 UNK         0.0680 
     74 H74        33.5870  -41.9431  -52.9814 H         1 UNK         0.0650 
     75 H75        33.4941  -41.2564  -54.5834 H         1 UNK         0.0650 
     76 H76        31.5721  -42.8546  -52.1050 H         1 UNK         0.1397 
     77 H77        28.3468  -43.9812  -54.6985 H         1 UNK         0.1363 
     78 H78        32.0839  -42.7054  -56.3604 H         1 UNK         0.1355 
     79 H79        29.0166  -44.5063  -57.0991 H         1 UNK         0.0707 
     80 H80        30.3992  -43.6959  -57.7993 H         1 UNK         0.0707 
     81 H81        28.5782  -43.4334  -59.6115 H         1 UNK         0.1034 
     82 H82        27.9167  -41.8353  -59.8138 H         1 UNK         0.1034 
     83 H83        25.8355  -42.5211  -58.5918 H         1 UNK         0.0482 
     84 H84        25.6569  -45.5306  -60.3146 H         1 UNK         0.3460 
     85 H85        25.1279  -44.8233  -61.8216 H         1 UNK         0.3460 
     86 H86        27.2799  -44.9887  -58.1252 H         1 UNK         0.2989 
     87 H87        25.8351  -46.0643  -55.8705 H         1 UNK         0.0559 
     88 H88        24.3892  -48.0755  -56.2317 H         1 UNK         0.0848 
     89 H89        23.8288  -47.4016  -57.7628 H         1 UNK         0.0848 
     90 H90        23.4521  -46.5924  -56.2476 H         1 UNK         0.0848 
     91 H91        27.3795  -47.3442  -56.7973 H         1 UNK         0.3144 
     92 H92        27.7889  -48.9381  -59.9721 H         1 UNK         0.0727 
     93 H93        30.0780  -48.0920  -59.5064 H         1 UNK         0.0790 
     94 H94        29.4470  -46.9484  -58.3266 H         1 UNK         0.0790 
     95 H95        29.0186  -46.7914  -60.0236 H         1 UNK         0.0790 
     96 H96        28.5422  -49.0164  -57.0695 H         1 UNK         0.3215 
     97 H97        27.7721  -52.5069  -56.9470 H         1 UNK         0.0863 
     98 H98        30.0290  -52.5974  -55.9209 H         1 UNK         0.0808 
     99 H99        30.4423  -51.0373  -56.6256 H         1 UNK         0.0808 
    100 H100       30.1541  -52.4253  -57.6645 H         1 UNK         0.0808 
    101 H101       28.6417  -50.7445  -54.9050 H         1 UNK         0.3118 
    102 H102       25.3259  -49.9694  -53.7148 H         1 UNK         0.0546 
    103 H103       25.9533  -52.2544  -52.9567 H         1 UNK         0.0828 
    104 H104       26.3533  -51.0569  -51.7364 H         1 UNK         0.0828 
    105 H105       27.6245  -51.7505  -52.7406 H         1 UNK         0.0828 
    106 H106       28.2410  -49.3669  -53.3790 H         1 UNK         0.3005 
    107 H107       27.7055  -45.9612  -53.7914 H         1 UNK         0.1257 
    108 H108       28.0211  -47.2154  -51.0263 H         1 UNK         0.0775 
    109 H109       27.0595  -45.8266  -51.4502 H         1 UNK         0.0775 
    110 H110       27.9350  -43.6782  -52.3128 H         1 UNK         0.0840 
    111 H111       29.1407  -42.8991  -51.3274 H         1 UNK         0.0840 
    112 H112       30.0092  -47.3116  -52.9020 H         1 UNK         0.2987 
    113 H113       31.0209  -48.7958  -55.9300 H         1 UNK         0.0785 
    114 H114       32.0831  -46.2167  -54.6670 H         1 UNK         0.0798 
    115 H115       31.6096  -46.4067  -56.3458 H         1 UNK         0.0798 
    116 H116       32.9847  -47.3061  -55.7307 H         1 UNK         0.0798 
    117 H117       32.4400  -48.4543  -53.5068 H         1 UNK         0.3079 
    118 H118       31.2482  -50.3666  -51.3558 H         1 UNK         0.0794 
    119 H119       32.2295  -52.5326  -53.2864 H         1 UNK         0.0786 
    120 H120       30.7291  -52.5416  -52.3755 H         1 UNK         0.0786 
    121 H121       32.2607  -52.6592  -51.5275 H         1 UNK         0.0786 
    122 H122       33.3066  -49.6286  -51.1807 H         1 UNK         0.3032 
    123 H123       35.4410  -49.3591  -51.3155 H         1 UNK         0.1094 
    124 H124       36.9377  -50.6344  -53.6677 H         1 UNK         0.0794 
    125 H125       37.6588  -49.9680  -52.2024 H         1 UNK         0.0794 
    126 H126       36.6525  -51.4039  -52.1133 H         1 UNK         0.0794 
    127 H127       36.5564  -48.1807  -53.6114 H         1 UNK         0.3016 
@<TRIPOS>BOND
     1    1    2 1    
     2    1   67 1    
     3    1   68 1    
     4    1   69 1    
     5    2    3 2    
     6    2    4 am   BACKBONE|DICT|INTERRES
     7    4    5 1    
     8    4   70 1    
     9    5    6 1    
    10    5   65 1    
    11    5   71 1    
    12    6    7 1    
    13    6   72 1    
    14    6   73 1    
    15    7    8 1    
    16    8    9 1    
    17    8   74 1    
    18    8   75 1    
    19    9   10 ar   
    20    9   14 ar   
    21   10   11 ar   
    22   10   76 1    
    23   11   12 ar   
    24   11   48 1    
    25   12   13 ar   
    26   12   77 1    
    27   13   14 ar   
    28   13   15 1    
    29   14   78 1    
    30   15   16 1    
    31   15   79 1    
    32   15   80 1    
    33   16   17 1    
    34   17   18 1    
    35   17   81 1    
    36   17   82 1    
    37   18   19 1    
    38   18   22 1    
    39   18   83 1    
    40   19   20 am   BACKBONE|DICT|INTERRES
    41   19   21 2    
    42   20   84 1    
    43   20   85 1    
    44   22   23 am   BACKBONE|DICT|INTERRES
    45   22   86 1    
    46   23   24 2    
    47   23   25 1    
    48   25   26 1    
    49   25   27 1    
    50   25   87 1    
    51   26   88 1    
    52   26   89 1    
    53   26   90 1    
    54   27   28 am   BACKBONE|DICT|INTERRES
    55   27   91 1    
    56   28   29 2    
    57   28   30 1    
    58   30   31 1    
    59   30   32 1    
    60   30   92 1    
    61   31   93 1    
    62   31   94 1    
    63   31   95 1    
    64   32   33 am   BACKBONE|DICT|INTERRES
    65   32   96 1    
    66   33   34 2    
    67   33   35 1    
    68   35   36 1    
    69   35   37 1    
    70   35   97 1    
    71   36   98 1    
    72   36   99 1    
    73   36  100 1    
    74   37   38 am   BACKBONE|DICT|INTERRES
    75   37  101 1    
    76   38   39 2    
    77   38   40 1    
    78   40   41 1    
    79   40   42 1    
    80   40  102 1    
    81   41  103 1    
    82   41  104 1    
    83   41  105 1    
    84   42   43 am   BACKBONE|DICT|INTERRES
    85   42  106 1    
    86   43   44 2    
    87   43   45 1    
    88   45   46 1    
    89   45   49 1    
    90   45  107 1    
    91   46   47 1    
    92   46  108 1    
    93   46  109 1    
    94   47   48 1    
    95   48  110 1    
    96   48  111 1    
    97   49   50 am   BACKBONE|DICT|INTERRES
    98   49  112 1    
    99   50   51 2    
   100   50   52 1    
   101   52   53 1    
   102   52   54 1    
   103   52  113 1    
   104   53  114 1    
   105   53  115 1    
   106   53  116 1    
   107   54   55 am   BACKBONE|DICT|INTERRES
   108   54  117 1    
   109   55   56 2    
   110   55   57 1    
   111   57   58 1    
   112   57   59 1    
   113   57  118 1    
   114   58  119 1    
   115   58  120 1    
   116   58  121 1    
   117   59   60 am   BACKBONE|DICT|INTERRES
   118   59  122 1    
   119   60   61 2    
   120   60   62 1    
   121   62   63 1    
   122   62   64 1    
   123   62  123 1    
   124   63  124 1    
   125   63  125 1    
   126   63  126 1    
   127   64   65 am   BACKBONE|DICT|INTERRES
   128   64  127 1    
   129   65   66 2    
@<TRIPOS>SUBSTRUCTURE
     1 UNK         1 GROUP             0       ****    0 ROOT    
