@<TRIPOS>MOLECULE
3R134
127   129    1
SMALL
USER_CHARGES


@<TRIPOS>ATOM
      1 CA         36.7688  -45.0981  -52.6181 C.3       0 UNK        -0.1968 
      2 C          35.4485  -45.8472  -52.5301 C.2       0 UNK         0.4852 
      3 O          35.2338  -46.7991  -53.2780 O.2       0 UNK        -0.5359 
      4 N          34.5670  -45.4448  -51.6055 N.am      1 UNK        -0.4300 
      5 CA         33.2028  -45.9707  -51.4303 C.3       1 UNK         0.0863 
      6 C6         32.3282  -45.0302  -50.5634 C.3       11 UNK        -0.0953 
      7 S7         32.3549  -43.2881  -51.1225 S.3       11 UNK        -0.2369 
      8 C8         30.7790  -43.1230  -52.0328 C.3       11 UNK         0.0226 
      9 C9         30.8924  -43.1515  -53.5596 C.ar      11 UNK        -0.0699 
     10 C10        31.9302  -43.8058  -54.2363 C.ar      11 UNK        -0.0804 
     11 C11        31.9773  -43.8275  -55.6333 C.ar      11 UNK        -0.0871 
     12 C12        30.9778  -43.1788  -56.3642 C.ar      11 UNK        -0.1008 
     13 C13        29.9475  -42.4984  -55.7075 C.ar      11 UNK        -0.0735 
     14 C14        29.9109  -42.4967  -54.3092 C.ar      11 UNK        -0.0945 
     15 C15        28.9146  -41.7168  -56.5139 C.3       11 UNK         0.0169 
     16 S16        27.1947  -41.9949  -55.9734 S.3       11 UNK        -0.2669 
     17 C17        26.9502  -43.7420  -56.4265 C.3       11 UNK        -0.0850 
     18 CA         26.2123  -43.8993  -57.7837 C.3       10 UNK         0.0855 
     19 C          27.1535  -43.7785  -59.0056 C.2       10 UNK         0.5543 
     20 N          28.0604  -44.7255  -59.2048 N.am      10 UNK        -0.7343 
     21 O          27.0503  -42.8349  -59.7852 O.2       10 UNK        -0.5027 
     22 N          25.4406  -45.1406  -57.8663 N.am      10 UNK        -0.4495 
     23 C          24.2359  -45.3438  -57.3286 C.2       10 UNK         0.4903 
     24 O          23.6605  -44.5172  -56.6201 O.2       10 UNK        -0.4860 
     25 CA         23.5272  -46.6797  -57.6256 C.3       9 UNK         0.0227 
     26 CB         22.6415  -46.5576  -58.8808 C.3       9 UNK        -0.1964 
     27 N          24.3958  -47.8632  -57.7036 N.am      9 UNK        -0.4231 
     28 C          25.3597  -48.1671  -58.5827 C.2       9 UNK         0.5014 
     29 O          25.7070  -47.4216  -59.5006 O.2       9 UNK        -0.5270 
     30 CA         26.0562  -49.5297  -58.3875 C.3       8 UNK         0.0284 
     31 CB         27.1670  -49.7754  -59.4260 C.3       8 UNK        -0.1977 
     32 N          26.6256  -49.6891  -57.0466 N.am      8 UNK        -0.4342 
     33 C          25.9438  -49.9052  -55.9138 C.2       8 UNK         0.5039 
     34 O          24.7158  -49.9952  -55.8653 O.2       8 UNK        -0.5547 
     35 CA         26.7616  -50.0053  -54.6180 C.3       7 UNK         0.0281 
     36 CB         27.3690  -51.4089  -54.4594 C.3       7 UNK        -0.1963 
     37 N          27.8215  -48.9975  -54.5648 N.am      7 UNK        -0.4444 
     38 C          27.6259  -47.7023  -54.2792 C.2       7 UNK         0.5104 
     39 O          26.5318  -47.2206  -53.9852 O.2       7 UNK        -0.5100 
     40 CA         28.8639  -46.7899  -54.3224 C.3       6 UNK         0.0396 
     41 CB         29.5458  -46.7451  -52.9479 C.3       6 UNK        -0.1801 
     42 N          29.8415  -47.2068  -55.3276 N.am      6 UNK        -0.4747 
     43 C          29.6640  -47.0899  -56.6512 C.2       6 UNK         0.5012 
     44 O          28.6547  -46.6150  -57.1719 O.2       6 UNK        -0.5003 
     45 CA         30.7839  -47.6471  -57.5528 C.3       5 UNK         0.0782 
     46 C46        31.8925  -46.5929  -57.8049 C.3       11 UNK        -0.0868 
     47 S47        32.9974  -46.3142  -56.3735 S.3       11 UNK        -0.2515 
     48 C48        33.1464  -44.5000  -56.3415 C.3       11 UNK         0.0199 
     49 N          31.3273  -48.9278  -57.0798 N.am      5 UNK        -0.4607 
     50 C          30.6115  -50.0368  -56.8475 C.2       4 UNK         0.5031 
     51 O          29.3995  -50.1090  -57.0399 O.2       4 UNK        -0.5119 
     52 CA         31.3368  -51.2751  -56.2903 C.3       4 UNK         0.0263 
     53 CB         31.4472  -52.3574  -57.3764 C.3       4 UNK        -0.1967 
     54 N          32.6663  -51.0285  -55.7223 N.am      4 UNK        -0.4237 
     55 C          32.9319  -50.2569  -54.6596 C.2       3 UNK         0.4908 
     56 O          32.0833  -49.5783  -54.0748 O.2       3 UNK        -0.5102 
     57 CA         34.4052  -50.2302  -54.2177 C.3       3 UNK         0.0241 
     58 CB         35.2610  -49.4360  -55.2196 C.3       3 UNK        -0.1971 
     59 N          34.5593  -49.6440  -52.8863 N.am      3 UNK        -0.4139 
     60 C          34.3151  -50.2913  -51.7356 C.2       2 UNK         0.5016 
     61 O          34.0202  -51.4863  -51.6760 O.2       2 UNK        -0.5319 
     62 CA         34.4267  -49.4877  -50.4231 C.3       2 UNK         0.0286 
     63 CB         35.7717  -49.7665  -49.7324 C.3       2 UNK        -0.1963 
     64 N          34.2863  -48.0451  -50.6287 N.am      2 UNK        -0.4790 
     65 C          33.1328  -47.4312  -50.9273 C.2       1 UNK         0.5024 
     66 O          32.0371  -47.9862  -50.8444 O.2       1 UNK        -0.4888 
     67 H67        37.5996  -45.7796  -52.4376 H         1 UNK         0.0892 
     68 H68        36.8886  -44.6705  -53.6131 H         1 UNK         0.0892 
     69 H69        36.8280  -44.2883  -51.8912 H         1 UNK         0.0892 
     70 H70        34.8009  -44.6631  -51.0093 H         1 UNK         0.3107 
     71 H71        32.7530  -46.0191  -52.4217 H         1 UNK         0.0773 
     72 H72        32.6792  -45.0447  -49.5299 H         1 UNK         0.0680 
     73 H73        31.2967  -45.3844  -50.5296 H         1 UNK         0.0680 
     74 H74        30.3415  -42.1706  -51.7297 H         1 UNK         0.0650 
     75 H75        30.0717  -43.8887  -51.7146 H         1 UNK         0.0650 
     76 H76        32.7222  -44.2889  -53.6884 H         1 UNK         0.1397 
     77 H77        31.0200  -43.1763  -57.4449 H         1 UNK         0.1363 
     78 H78        29.1149  -41.9704  -53.8002 H         1 UNK         0.1355 
     79 H79        28.9947  -41.9493  -57.5766 H         1 UNK         0.0707 
     80 H80        29.1384  -40.6538  -56.4176 H         1 UNK         0.0707 
     81 H81        27.9020  -44.2731  -56.4173 H         1 UNK         0.1034 
     82 H82        26.3633  -44.1920  -55.6245 H         1 UNK         0.1034 
     83 H83        25.4899  -43.0848  -57.8739 H         1 UNK         0.0482 
     84 H84        28.1741  -45.4804  -58.5324 H         1 UNK         0.3460 
     85 H85        28.6647  -44.6686  -60.0080 H         1 UNK         0.3460 
     86 H86        25.8123  -45.8555  -58.4892 H         1 UNK         0.2989 
     87 H87        22.8657  -46.8693  -56.7787 H         1 UNK         0.0559 
     88 H88        23.2301  -46.3631  -59.7779 H         1 UNK         0.0848 
     89 H89        21.9306  -45.7368  -58.7771 H         1 UNK         0.0848 
     90 H90        22.0636  -47.4663  -59.0491 H         1 UNK         0.0848 
     91 H91        24.2569  -48.5498  -56.9632 H         1 UNK         0.3144 
     92 H92        25.2947  -50.2995  -58.5281 H         1 UNK         0.0727 
     93 H93        26.7749  -49.7210  -60.4424 H         1 UNK         0.0790 
     94 H94        27.9643  -49.0356  -59.3413 H         1 UNK         0.0790 
     95 H95        27.6138  -50.7624  -59.3038 H         1 UNK         0.0790 
     96 H96        27.6435  -49.6686  -56.9940 H         1 UNK         0.3215 
     97 H97        26.0812  -49.8359  -53.7803 H         1 UNK         0.0863 
     98 H98        28.0503  -51.6551  -55.2742 H         1 UNK         0.0808 
     99 H99        26.5874  -52.1698  -54.4504 H         1 UNK         0.0808 
    100 H100       27.9191  -51.4999  -53.5227 H         1 UNK         0.0808 
    101 H101       28.7494  -49.2895  -54.8367 H         1 UNK         0.3118 
    102 H102       28.5308  -45.7796  -54.5686 H         1 UNK         0.0546 
    103 H103       28.8543  -46.4017  -52.1775 H         1 UNK         0.0828 
    104 H104       30.3921  -46.0604  -52.9527 H         1 UNK         0.0828 
    105 H105       29.9129  -47.7271  -52.6461 H         1 UNK         0.0828 
    106 H106       30.7015  -47.6240  -54.9941 H         1 UNK         0.3005 
    107 H107       30.3106  -47.8558  -58.5150 H         1 UNK         0.1257 
    108 H108       31.4514  -45.6472  -58.1256 H         1 UNK         0.0775 
    109 H109       32.5161  -46.9186  -58.6387 H         1 UNK         0.0775 
    110 H110       34.0710  -44.2418  -55.8229 H         1 UNK         0.0840 
    111 H111       33.2596  -44.1208  -57.3583 H         1 UNK         0.0840 
    112 H112       32.3135  -48.9367  -56.8664 H         1 UNK         0.2987 
    113 H113       30.7108  -51.6661  -55.4856 H         1 UNK         0.0785 
    114 H114       32.0862  -52.0381  -58.2008 H         1 UNK         0.0798 
    115 H115       30.4678  -52.5923  -57.7964 H         1 UNK         0.0798 
    116 H116       31.8533  -53.2858  -56.9742 H         1 UNK         0.0798 
    117 H117       33.4306  -51.5306  -56.1516 H         1 UNK         0.3079 
    118 H118       34.7728  -51.2583  -54.1884 H         1 UNK         0.0794 
    119 H119       34.8956  -48.4163  -55.3417 H         1 UNK         0.0786 
    120 H120       35.2571  -49.9022  -56.2054 H         1 UNK         0.0786 
    121 H121       36.3002  -49.3787  -54.8953 H         1 UNK         0.0786 
    122 H122       34.7589  -48.6474  -52.8632 H         1 UNK         0.3032 
    123 H123       33.6234  -49.8259  -49.7643 H         1 UNK         0.1094 
    124 H124       35.8390  -49.2543  -48.7723 H         1 UNK         0.0794 
    125 H125       35.8961  -50.8328  -49.5382 H         1 UNK         0.0794 
    126 H126       36.6153  -49.4465  -50.3454 H         1 UNK         0.0794 
    127 H127       35.1389  -47.5116  -50.7183 H         1 UNK         0.3016 
@<TRIPOS>BOND
     1    1    2 1    
     2    1   67 1    
     3    1   68 1    
     4    1   69 1    
     5    2    3 2    
     6    2    4 am   BACKBONE|DICT|INTERRES
     7    4    5 1    
     8    4   70 1    
     9    5    6 1    
    10    5   65 1    
    11    5   71 1    
    12    6    7 1    
    13    6   72 1    
    14    6   73 1    
    15    7    8 1    
    16    8    9 1    
    17    8   74 1    
    18    8   75 1    
    19    9   10 ar   
    20    9   14 ar   
    21   10   11 ar   
    22   10   76 1    
    23   11   12 ar   
    24   11   48 1    
    25   12   13 ar   
    26   12   77 1    
    27   13   14 ar   
    28   13   15 1    
    29   14   78 1    
    30   15   16 1    
    31   15   79 1    
    32   15   80 1    
    33   16   17 1    
    34   17   18 1    
    35   17   81 1    
    36   17   82 1    
    37   18   19 1    
    38   18   22 1    
    39   18   83 1    
    40   19   20 am   BACKBONE|DICT|INTERRES
    41   19   21 2    
    42   20   84 1    
    43   20   85 1    
    44   22   23 am   BACKBONE|DICT|INTERRES
    45   22   86 1    
    46   23   24 2    
    47   23   25 1    
    48   25   26 1    
    49   25   27 1    
    50   25   87 1    
    51   26   88 1    
    52   26   89 1    
    53   26   90 1    
    54   27   28 am   BACKBONE|DICT|INTERRES
    55   27   91 1    
    56   28   29 2    
    57   28   30 1    
    58   30   31 1    
    59   30   32 1    
    60   30   92 1    
    61   31   93 1    
    62   31   94 1    
    63   31   95 1    
    64   32   33 am   BACKBONE|DICT|INTERRES
    65   32   96 1    
    66   33   34 2    
    67   33   35 1    
    68   35   36 1    
    69   35   37 1    
    70   35   97 1    
    71   36   98 1    
    72   36   99 1    
    73   36  100 1    
    74   37   38 am   BACKBONE|DICT|INTERRES
    75   37  101 1    
    76   38   39 2    
    77   38   40 1    
    78   40   41 1    
    79   40   42 1    
    80   40  102 1    
    81   41  103 1    
    82   41  104 1    
    83   41  105 1    
    84   42   43 am   BACKBONE|DICT|INTERRES
    85   42  106 1    
    86   43   44 2    
    87   43   45 1    
    88   45   46 1    
    89   45   49 1    
    90   45  107 1    
    91   46   47 1    
    92   46  108 1    
    93   46  109 1    
    94   47   48 1    
    95   48  110 1    
    96   48  111 1    
    97   49   50 am   BACKBONE|DICT|INTERRES
    98   49  112 1    
    99   50   51 2    
   100   50   52 1    
   101   52   53 1    
   102   52   54 1    
   103   52  113 1    
   104   53  114 1    
   105   53  115 1    
   106   53  116 1    
   107   54   55 am   BACKBONE|DICT|INTERRES
   108   54  117 1    
   109   55   56 2    
   110   55   57 1    
   111   57   58 1    
   112   57   59 1    
   113   57  118 1    
   114   58  119 1    
   115   58  120 1    
   116   58  121 1    
   117   59   60 am   BACKBONE|DICT|INTERRES
   118   59  122 1    
   119   60   61 2    
   120   60   62 1    
   121   62   63 1    
   122   62   64 1    
   123   62  123 1    
   124   63  124 1    
   125   63  125 1    
   126   63  126 1    
   127   64   65 am   BACKBONE|DICT|INTERRES
   128   64  127 1    
   129   65   66 2    
@<TRIPOS>SUBSTRUCTURE
     1 UNK         1 GROUP             0       ****    0 ROOT    
