@<TRIPOS>MOLECULE
3R134
127   129    1
SMALL
USER_CHARGES


@<TRIPOS>ATOM
      1 CA         29.6063  -46.0048  -47.8205 C.3       0 UNK        -0.1968 
      2 C          31.0311  -45.9326  -48.3503 C.2       0 UNK         0.4852 
      3 O          31.9788  -46.0793  -47.5766 O.2       0 UNK        -0.5359 
      4 N          31.1882  -45.6999  -49.6600 N.am      1 UNK        -0.4300 
      5 CA         32.4764  -45.6713  -50.3567 C.3       1 UNK         0.0863 
      6 C6         32.3345  -45.0033  -51.7454 C.3       11 UNK        -0.0953 
      7 S7         33.9329  -44.5517  -52.4983 S.3       11 UNK        -0.2369 
      8 C8         33.4291  -43.1976  -53.6050 C.3       11 UNK         0.0226 
      9 C9         32.5438  -43.6920  -54.7404 C.ar      11 UNK        -0.0699 
     10 C10        33.1175  -44.2206  -55.8996 C.ar      11 UNK        -0.0804 
     11 C11        32.3116  -44.6614  -56.9538 C.ar      11 UNK        -0.0871 
     12 C12        30.9208  -44.5829  -56.8383 C.ar      11 UNK        -0.1008 
     13 C13        30.3355  -44.0577  -55.6821 C.ar      11 UNK        -0.0735 
     14 C14        31.1520  -43.6094  -54.6397 C.ar      11 UNK        -0.0945 
     15 C15        28.8234  -43.9825  -55.5432 C.3       11 UNK         0.0169 
     16 S16        28.1726  -42.3879  -56.1296 S.3       11 UNK        -0.2669 
     17 C17        27.8330  -42.7522  -57.8868 C.3       11 UNK        -0.0850 
     18 CA         26.3255  -43.0077  -58.1435 C.3       10 UNK         0.0855 
     19 C          26.0435  -43.1839  -59.6571 C.2       10 UNK         0.5543 
     20 N          25.4938  -42.1707  -60.3118 N.am      10 UNK        -0.7343 
     21 O          26.3624  -44.2135  -60.2479 O.2       10 UNK        -0.5027 
     22 N          25.8433  -44.1693  -57.3873 N.am      10 UNK        -0.4495 
     23 C          24.5810  -44.3566  -56.9877 C.2       10 UNK         0.4903 
     24 O          23.6740  -43.5418  -57.1674 O.2       10 UNK        -0.4860 
     25 CA         24.3034  -45.6835  -56.2533 C.3       9 UNK         0.0227 
     26 CB         22.8005  -45.9483  -56.0199 C.3       9 UNK        -0.1964 
     27 N          24.9486  -46.8312  -56.9034 N.am      9 UNK        -0.4231 
     28 C          24.7310  -47.2846  -58.1510 C.2       9 UNK         0.5014 
     29 O          23.8967  -46.8064  -58.9206 O.2       9 UNK        -0.5270 
     30 CA         25.5905  -48.4655  -58.6424 C.3       8 UNK         0.0284 
     31 CB         26.5789  -47.9961  -59.7237 C.3       8 UNK        -0.1977 
     32 N          26.3285  -49.1290  -57.5640 N.am      8 UNK        -0.4342 
     33 C          25.7791  -49.9914  -56.6947 C.2       8 UNK         0.5039 
     34 O          24.6086  -50.3680  -56.7626 O.2       8 UNK        -0.5547 
     35 CA         26.6609  -50.5168  -55.5457 C.3       7 UNK         0.0281 
     36 CB         27.0879  -51.9682  -55.8179 C.3       7 UNK        -0.1963 
     37 N          27.8534  -49.7061  -55.2843 N.am      7 UNK        -0.4444 
     38 C          27.8463  -48.4486  -54.8151 C.2       7 UNK         0.5104 
     39 O          26.8195  -47.8197  -54.5574 O.2       7 UNK        -0.5100 
     40 CA         29.2147  -47.7549  -54.6793 C.3       6 UNK         0.0396 
     41 CB         29.8022  -48.0071  -53.2841 C.3       6 UNK        -0.1801 
     42 N          30.1728  -48.1766  -55.7084 N.am      6 UNK        -0.4747 
     43 C          29.9762  -48.0218  -57.0293 C.2       6 UNK         0.5012 
     44 O          29.0030  -47.4252  -57.4918 O.2       6 UNK        -0.5003 
     45 CA         30.9570  -48.6987  -58.0114 C.3       5 UNK         0.0782 
     46 C46        31.7264  -47.6796  -58.8913 C.3       11 UNK        -0.0868 
     47 S47        33.2358  -46.9923  -58.1217 S.3       11 UNK        -0.2515 
     48 C48        32.9533  -45.1991  -58.2221 C.3       11 UNK         0.0199 
     49 N          31.8497  -49.6774  -57.3852 N.am      5 UNK        -0.4607 
     50 C          31.4769  -50.8423  -56.8417 C.2       4 UNK         0.5031 
     51 O          30.3164  -51.2521  -56.8365 O.2       4 UNK        -0.5119 
     52 CA         32.5791  -51.6602  -56.1454 C.3       4 UNK         0.0263 
     53 CB         33.1887  -52.6784  -57.1220 C.3       4 UNK        -0.1967 
     54 N          33.6490  -50.8358  -55.5651 N.am      4 UNK        -0.4237 
     55 C          33.4684  -49.9465  -54.5788 C.2       3 UNK         0.4908 
     56 O          32.3723  -49.7003  -54.0725 O.2       3 UNK        -0.5102 
     57 CA         34.7031  -49.1783  -54.1020 C.3       3 UNK         0.0241 
     58 CB         34.8660  -47.8608  -54.8808 C.3       3 UNK        -0.1971 
     59 N          34.5417  -48.8909  -52.6810 N.am      3 UNK        -0.4139 
     60 C          35.5339  -48.7644  -51.7948 C.2       2 UNK         0.5016 
     61 O          36.7278  -48.8422  -52.0929 O.2       2 UNK        -0.5319 
     62 CA         35.1183  -48.4834  -50.3377 C.3       2 UNK         0.0286 
     63 CB         36.3208  -48.4226  -49.3764 C.3       2 UNK        -0.1963 
     64 N          34.3702  -47.2287  -50.2356 N.am      2 UNK        -0.4790 
     65 C          33.0580  -47.0963  -50.4638 C.2       1 UNK         0.5024 
     66 O          32.3247  -48.0373  -50.7772 O.2       1 UNK        -0.4888 
     67 H67        28.8690  -45.8453  -48.6072 H         1 UNK         0.0892 
     68 H68        29.4212  -46.9824  -47.3760 H         1 UNK         0.0892 
     69 H69        29.4522  -45.2465  -47.0533 H         1 UNK         0.0892 
     70 H70        30.3715  -45.6190  -50.2477 H         1 UNK         0.3107 
     71 H71        33.1547  -45.0627  -49.7541 H         1 UNK         0.0773 
     72 H72        31.7487  -44.0886  -51.6428 H         1 UNK         0.0680 
     73 H73        31.7841  -45.6376  -52.4407 H         1 UNK         0.0680 
     74 H74        34.3249  -42.7298  -54.0160 H         1 UNK         0.0650 
     75 H75        32.9203  -42.4234  -53.0287 H         1 UNK         0.0650 
     76 H76        34.1940  -44.2860  -55.9813 H         1 UNK         0.1397 
     77 H77        30.2953  -44.9339  -57.6469 H         1 UNK         0.1363 
     78 H78        30.7014  -43.1972  -53.7474 H         1 UNK         0.1355 
     79 H79        28.3502  -44.8052  -56.0806 H         1 UNK         0.0707 
     80 H80        28.5441  -44.1085  -54.4959 H         1 UNK         0.0707 
     81 H81        28.1735  -41.8941  -58.4697 H         1 UNK         0.1034 
     82 H82        28.4348  -43.5977  -58.2232 H         1 UNK         0.1034 
     83 H83        25.7819  -42.1265  -57.7951 H         1 UNK         0.0482 
     84 H84        25.2364  -41.3201  -59.8353 H         1 UNK         0.3460 
     85 H85        25.3192  -42.2632  -61.3003 H         1 UNK         0.3460 
     86 H86        26.5072  -44.9152  -57.2500 H         1 UNK         0.2989 
     87 H87        24.7736  -45.5905  -55.2730 H         1 UNK         0.0559 
     88 H88        22.2456  -45.9991  -56.9572 H         1 UNK         0.0848 
     89 H89        22.3529  -45.1535  -55.4221 H         1 UNK         0.0848 
     90 H90        22.6411  -46.8841  -55.4845 H         1 UNK         0.0848 
     91 H91        25.6444  -47.3072  -56.3403 H         1 UNK         0.3144 
     92 H92        24.9158  -49.1935  -59.0981 H         1 UNK         0.0727 
     93 H93        27.2187  -48.8101  -60.0648 H         1 UNK         0.0790 
     94 H94        27.2180  -47.1880  -59.3671 H         1 UNK         0.0790 
     95 H95        26.0452  -47.6160  -60.5959 H         1 UNK         0.0790 
     96 H96        27.2915  -48.8433  -57.4333 H         1 UNK         0.3215 
     97 H97        26.0492  -50.5048  -54.6409 H         1 UNK         0.0863 
     98 H98        27.6654  -52.3766  -54.9883 H         1 UNK         0.0808 
     99 H99        27.6948  -52.0471  -56.7207 H         1 UNK         0.0808 
    100 H100       26.2180  -52.6123  -55.9538 H         1 UNK         0.0808 
    101 H101       28.7454  -50.1289  -55.5116 H         1 UNK         0.3118 
    102 H102       29.0613  -46.6822  -54.7915 H         1 UNK         0.0546 
    103 H103       29.1635  -47.5852  -52.5074 H         1 UNK         0.0828 
    104 H104       30.7868  -47.5540  -53.1804 H         1 UNK         0.0828 
    105 H105       29.9089  -49.0725  -53.0757 H         1 UNK         0.0828 
    106 H106       30.9887  -48.6852  -55.3857 H         1 UNK         0.3005 
    107 H107       30.3111  -49.2647  -58.6871 H         1 UNK         0.1257 
    108 H108       31.0670  -46.8772  -59.2270 H         1 UNK         0.0775 
    109 H109       32.0469  -48.1807  -59.8059 H         1 UNK         0.0775 
    110 H110       33.9149  -44.7083  -58.3803 H         1 UNK         0.0840 
    111 H111       32.3498  -44.9513  -59.0965 H         1 UNK         0.0840 
    112 H112       32.8203  -49.4041  -57.3302 H         1 UNK         0.2987 
    113 H113       32.1056  -52.2101  -55.3291 H         1 UNK         0.0785 
    114 H114       32.4159  -53.3187  -57.5501 H         1 UNK         0.0798 
    115 H115       33.9047  -53.3303  -56.6212 H         1 UNK         0.0798 
    116 H116       33.7012  -52.1881  -57.9507 H         1 UNK         0.0798 
    117 H117       34.5788  -50.9732  -55.9358 H         1 UNK         0.3079 
    118 H118       35.5857  -49.8046  -54.2493 H         1 UNK         0.0794 
    119 H119       33.9779  -47.2311  -54.8012 H         1 UNK         0.0786 
    120 H120       35.0405  -48.0524  -55.9396 H         1 UNK         0.0786 
    121 H121       35.7150  -47.2835  -54.5142 H         1 UNK         0.0786 
    122 H122       33.5788  -48.8325  -52.3615 H         1 UNK         0.3032 
    123 H123       34.4817  -49.3123  -50.0185 H         1 UNK         0.1094 
    124 H124       37.0064  -47.6145  -49.6349 H         1 UNK         0.0794 
    125 H125       35.9974  -48.2716  -48.3463 H         1 UNK         0.0794 
    126 H126       36.8888  -49.3536  -49.4021 H         1 UNK         0.0794 
    127 H127       34.9126  -46.3995  -50.0371 H         1 UNK         0.3016 
@<TRIPOS>BOND
     1    1    2 1    
     2    1   67 1    
     3    1   68 1    
     4    1   69 1    
     5    2    3 2    
     6    2    4 am   BACKBONE|DICT|INTERRES
     7    4    5 1    
     8    4   70 1    
     9    5    6 1    
    10    5   65 1    
    11    5   71 1    
    12    6    7 1    
    13    6   72 1    
    14    6   73 1    
    15    7    8 1    
    16    8    9 1    
    17    8   74 1    
    18    8   75 1    
    19    9   10 ar   
    20    9   14 ar   
    21   10   11 ar   
    22   10   76 1    
    23   11   12 ar   
    24   11   48 1    
    25   12   13 ar   
    26   12   77 1    
    27   13   14 ar   
    28   13   15 1    
    29   14   78 1    
    30   15   16 1    
    31   15   79 1    
    32   15   80 1    
    33   16   17 1    
    34   17   18 1    
    35   17   81 1    
    36   17   82 1    
    37   18   19 1    
    38   18   22 1    
    39   18   83 1    
    40   19   20 am   BACKBONE|DICT|INTERRES
    41   19   21 2    
    42   20   84 1    
    43   20   85 1    
    44   22   23 am   BACKBONE|DICT|INTERRES
    45   22   86 1    
    46   23   24 2    
    47   23   25 1    
    48   25   26 1    
    49   25   27 1    
    50   25   87 1    
    51   26   88 1    
    52   26   89 1    
    53   26   90 1    
    54   27   28 am   BACKBONE|DICT|INTERRES
    55   27   91 1    
    56   28   29 2    
    57   28   30 1    
    58   30   31 1    
    59   30   32 1    
    60   30   92 1    
    61   31   93 1    
    62   31   94 1    
    63   31   95 1    
    64   32   33 am   BACKBONE|DICT|INTERRES
    65   32   96 1    
    66   33   34 2    
    67   33   35 1    
    68   35   36 1    
    69   35   37 1    
    70   35   97 1    
    71   36   98 1    
    72   36   99 1    
    73   36  100 1    
    74   37   38 am   BACKBONE|DICT|INTERRES
    75   37  101 1    
    76   38   39 2    
    77   38   40 1    
    78   40   41 1    
    79   40   42 1    
    80   40  102 1    
    81   41  103 1    
    82   41  104 1    
    83   41  105 1    
    84   42   43 am   BACKBONE|DICT|INTERRES
    85   42  106 1    
    86   43   44 2    
    87   43   45 1    
    88   45   46 1    
    89   45   49 1    
    90   45  107 1    
    91   46   47 1    
    92   46  108 1    
    93   46  109 1    
    94   47   48 1    
    95   48  110 1    
    96   48  111 1    
    97   49   50 am   BACKBONE|DICT|INTERRES
    98   49  112 1    
    99   50   51 2    
   100   50   52 1    
   101   52   53 1    
   102   52   54 1    
   103   52  113 1    
   104   53  114 1    
   105   53  115 1    
   106   53  116 1    
   107   54   55 am   BACKBONE|DICT|INTERRES
   108   54  117 1    
   109   55   56 2    
   110   55   57 1    
   111   57   58 1    
   112   57   59 1    
   113   57  118 1    
   114   58  119 1    
   115   58  120 1    
   116   58  121 1    
   117   59   60 am   BACKBONE|DICT|INTERRES
   118   59  122 1    
   119   60   61 2    
   120   60   62 1    
   121   62   63 1    
   122   62   64 1    
   123   62  123 1    
   124   63  124 1    
   125   63  125 1    
   126   63  126 1    
   127   64   65 am   BACKBONE|DICT|INTERRES
   128   64  127 1    
   129   65   66 2    
@<TRIPOS>SUBSTRUCTURE
     1 UNK         1 GROUP             0       ****    0 ROOT    
