@<TRIPOS>MOLECULE
3R134
127   129    1
SMALL
USER_CHARGES


@<TRIPOS>ATOM
      1 CA         36.4720  -47.4543  -53.9501 C.3       0 UNK        -0.1968 
      2 C          35.0452  -46.9551  -53.7847 C.2       0 UNK         0.4852 
      3 O          34.1211  -47.5712  -54.3136 O.2       0 UNK        -0.5359 
      4 N          34.8578  -45.8482  -53.0520 N.am      1 UNK        -0.4300 
      5 CA         33.5577  -45.2080  -52.8014 C.3       1 UNK         0.0863 
      6 C6         33.6978  -43.8681  -52.0359 C.3       11 UNK        -0.0953 
      7 S7         34.8769  -42.7211  -52.8275 S.3       11 UNK        -0.2369 
      8 C8         33.7707  -41.4865  -53.5860 C.3       11 UNK         0.0226 
      9 C9         32.8856  -42.0560  -54.6901 C.ar      11 UNK        -0.0699 
     10 C10        33.4363  -42.8085  -55.7347 C.ar      11 UNK        -0.0804 
     11 C11        32.6212  -43.3129  -56.7520 C.ar      11 UNK        -0.0871 
     12 C12        31.2550  -43.0170  -56.7480 C.ar      11 UNK        -0.1008 
     13 C13        30.6885  -42.2852  -55.7036 C.ar      11 UNK        -0.0735 
     14 C14        31.5084  -41.8070  -54.6765 C.ar      11 UNK        -0.0945 
     15 C15        29.1913  -42.0176  -55.6928 C.3       11 UNK         0.0169 
     16 S16        28.2436  -43.5186  -55.2774 S.3       11 UNK        -0.2669 
     17 C17        26.5565  -42.8232  -55.1688 C.3       11 UNK        -0.0850 
     18 CA         25.5604  -43.3319  -56.2457 C.3       10 UNK         0.0855 
     19 C          25.9129  -42.8812  -57.6947 C.2       10 UNK         0.5543 
     20 N          25.7949  -43.7324  -58.7077 N.am      10 UNK        -0.7343 
     21 O          26.2780  -41.7281  -57.9098 O.2       10 UNK        -0.5027 
     22 N          25.2962  -44.7736  -56.1076 N.am      10 UNK        -0.4495 
     23 C          24.0887  -45.3393  -56.2260 C.2       10 UNK         0.4903 
     24 O          23.0478  -44.7026  -56.4003 O.2       10 UNK        -0.4860 
     25 CA         24.0459  -46.8783  -56.1475 C.3       9 UNK         0.0227 
     26 CB         22.6442  -47.4538  -56.4413 C.3       9 UNK        -0.1964 
     27 N          25.0487  -47.5398  -56.9928 N.am      9 UNK        -0.4231 
     28 C          25.2313  -47.3871  -58.3162 C.2       9 UNK         0.5014 
     29 O          24.6057  -46.5753  -58.9995 O.2       9 UNK        -0.5270 
     30 CA         26.2939  -48.2624  -59.0105 C.3       8 UNK         0.0284 
     31 CB         27.3519  -47.3858  -59.7046 C.3       8 UNK        -0.1977 
     32 N          26.9594  -49.1903  -58.0916 N.am      8 UNK        -0.4342 
     33 C          26.5068  -50.4151  -57.7794 C.2       8 UNK         0.5039 
     34 O          25.5168  -50.9260  -58.3042 O.2       8 UNK        -0.5547 
     35 CA         27.2544  -51.2022  -56.6818 C.3       7 UNK         0.0281 
     36 CB         28.2155  -52.2221  -57.3126 C.3       7 UNK        -0.1963 
     37 N          28.0029  -50.3607  -55.7445 N.am      7 UNK        -0.4444 
     38 C          27.4703  -49.4195  -54.9520 C.2       7 UNK         0.5104 
     39 O          26.2609  -49.2134  -54.8553 O.2       7 UNK        -0.5100 
     40 CA         28.4501  -48.4934  -54.2088 C.3       6 UNK         0.0396 
     41 CB         28.6560  -48.9721  -52.7660 C.3       6 UNK        -0.1801 
     42 N          29.7498  -48.3408  -54.8760 N.am      6 UNK        -0.4747 
     43 C          29.9223  -47.8670  -56.1210 C.2       6 UNK         0.5012 
     44 O          28.9895  -47.5427  -56.8545 O.2       6 UNK        -0.5003 
     45 CA         31.3641  -47.7489  -56.6498 C.3       5 UNK         0.0782 
     46 C46        31.8481  -46.2982  -56.4572 C.3       11 UNK        -0.0868 
     47 S47        33.4574  -45.9235  -57.2335 S.3       11 UNK        -0.2515 
     48 C48        33.1997  -44.2166  -57.8337 C.3       11 UNK         0.0199 
     49 N          32.2499  -48.7449  -56.0366 N.am      5 UNK        -0.4607 
     50 C          32.2052  -50.0488  -56.3398 C.2       4 UNK         0.5031 
     51 O          31.4655  -50.5189  -57.2048 O.2       4 UNK        -0.5119 
     52 CA         33.0922  -50.9955  -55.5183 C.3       4 UNK         0.0263 
     53 CB         34.5908  -50.7296  -55.7376 C.3       4 UNK        -0.1967 
     54 N          32.7685  -50.9767  -54.0886 N.am      4 UNK        -0.4237 
     55 C          31.6299  -51.4469  -53.5604 C.2       3 UNK         0.4908 
     56 O          30.6784  -51.8475  -54.2314 O.2       3 UNK        -0.5102 
     57 CA         31.5282  -51.5091  -52.0251 C.3       3 UNK         0.0241 
     58 CB         32.5383  -52.5118  -51.4298 C.3       3 UNK        -0.1971 
     59 N          31.5941  -50.2044  -51.3539 N.am      3 UNK        -0.4139 
     60 C          32.6247  -49.3517  -51.2987 C.2       2 UNK         0.5016 
     61 O          33.7285  -49.5638  -51.8077 O.2       2 UNK        -0.5319 
     62 CA         32.3900  -48.0595  -50.5025 C.3       2 UNK         0.0286 
     63 CB         32.9077  -48.2156  -49.0636 C.3       2 UNK        -0.1963 
     64 N          33.0997  -46.9585  -51.1469 N.am      2 UNK        -0.4790 
     65 C          32.5713  -46.1456  -52.0718 C.2       1 UNK         0.5024 
     66 O          31.3778  -46.1358  -52.3748 O.2       1 UNK        -0.4888 
     67 H67        36.7281  -47.5070  -55.0078 H         1 UNK         0.0892 
     68 H68        36.5671  -48.4532  -53.5251 H         1 UNK         0.0892 
     69 H69        37.1931  -46.8031  -53.4568 H         1 UNK         0.0892 
     70 H70        35.6562  -45.3699  -52.6595 H         1 UNK         0.3107 
     71 H71        33.1238  -44.9858  -53.7773 H         1 UNK         0.0773 
     72 H72        34.0446  -44.0444  -51.0159 H         1 UNK         0.0680 
     73 H73        32.7264  -43.3780  -51.9453 H         1 UNK         0.0680 
     74 H74        33.1690  -41.0278  -52.7998 H         1 UNK         0.0650 
     75 H75        34.3812  -40.6883  -54.0099 H         1 UNK         0.0650 
     76 H76        34.4959  -43.0250  -55.7419 H         1 UNK         0.1397 
     77 H77        30.6168  -43.3949  -57.5354 H         1 UNK         0.1363 
     78 H78        31.0736  -41.2332  -53.8695 H         1 UNK         0.1355 
     79 H79        28.8783  -41.6509  -56.6717 H         1 UNK         0.0707 
     80 H80        28.9548  -41.2300  -54.9757 H         1 UNK         0.0707 
     81 H81        26.1657  -43.0634  -54.1789 H         1 UNK         0.1034 
     82 H82        26.6023  -41.7330  -55.1940 H         1 UNK         0.1034 
     83 H83        24.6287  -42.8039  -56.0348 H         1 UNK         0.0482 
     84 H84        25.4296  -44.6660  -58.5683 H         1 UNK         0.3460 
     85 H85        26.0190  -43.4178  -59.6380 H         1 UNK         0.3460 
     86 H86        26.1101  -45.3613  -55.9971 H         1 UNK         0.2989 
     87 H87        24.2969  -47.1365  -55.1177 H         1 UNK         0.0559 
     88 H88        21.9017  -47.0510  -55.7513 H         1 UNK         0.0848 
     89 H89        22.6304  -48.5383  -56.3322 H         1 UNK         0.0848 
     90 H90        22.3133  -47.2145  -57.4526 H         1 UNK         0.0848 
     91 H91        25.6222  -48.2218  -56.5070 H         1 UNK         0.3144 
     92 H92        25.7805  -48.8365  -59.7845 H         1 UNK         0.0727 
     93 H93        28.1364  -47.9905  -60.1597 H         1 UNK         0.0790 
     94 H94        27.8224  -46.6885  -59.0109 H         1 UNK         0.0790 
     95 H95        26.9015  -46.7903  -60.4997 H         1 UNK         0.0790 
     96 H96        27.7696  -48.8171  -57.6019 H         1 UNK         0.3215 
     97 H97        26.5038  -51.7469  -56.1053 H         1 UNK         0.0863 
     98 H98        28.7009  -52.8343  -56.5518 H         1 UNK         0.0808 
     99 H99        28.9966  -51.7320  -57.8954 H         1 UNK         0.0808 
    100 H100       27.6834  -52.8988  -57.9827 H         1 UNK         0.0808 
    101 H101       29.0091  -50.4686  -55.7421 H         1 UNK         0.3118 
    102 H102       27.9937  -47.5019  -54.1725 H         1 UNK         0.0546 
    103 H103       27.7085  -48.9881  -52.2255 H         1 UNK         0.0828 
    104 H104       29.3279  -48.3101  -52.2197 H         1 UNK         0.0828 
    105 H105       29.0611  -49.9827  -52.7346 H         1 UNK         0.0828 
    106 H106       30.5739  -48.5773  -54.3429 H         1 UNK         0.3005 
    107 H107       31.3236  -47.9471  -57.7236 H         1 UNK         0.1257 
    108 H108       31.9053  -46.0474  -55.3974 H         1 UNK         0.0775 
    109 H109       31.1025  -45.6316  -56.8894 H         1 UNK         0.0775 
    110 H110       34.1516  -43.8130  -58.1819 H         1 UNK         0.0840 
    111 H111       32.5425  -44.2411  -58.7044 H         1 UNK         0.0840 
    112 H112       32.9221  -48.3981  -55.3500 H         1 UNK         0.2987 
    113 H113       32.8921  -52.0068  -55.8796 H         1 UNK         0.0785 
    114 H114       34.9038  -49.7699  -55.3313 H         1 UNK         0.0798 
    115 H115       34.8348  -50.7277  -56.8008 H         1 UNK         0.0798 
    116 H116       35.1999  -51.5019  -55.2678 H         1 UNK         0.0798 
    117 H117       33.4496  -50.5704  -53.4515 H         1 UNK         0.3079 
    118 H118       30.5334  -51.8982  -51.8011 H         1 UNK         0.0794 
    119 H119       33.5721  -52.2058  -51.5914 H         1 UNK         0.0786 
    120 H120       32.4196  -53.4971  -51.8828 H         1 UNK         0.0786 
    121 H121       32.3905  -52.6302  -50.3564 H         1 UNK         0.0786 
    122 H122       30.7435  -49.9357  -50.8792 H         1 UNK         0.3032 
    123 H123       31.3201  -47.8407  -50.4677 H         1 UNK         0.1094 
    124 H124       32.3841  -49.0197  -48.5445 H         1 UNK         0.0794 
    125 H125       32.7537  -47.3038  -48.4861 H         1 UNK         0.0794 
    126 H126       33.9725  -48.4518  -49.0395 H         1 UNK         0.0794 
    127 H127       34.1031  -46.9511  -51.0320 H         1 UNK         0.3016 
@<TRIPOS>BOND
     1    1    2 1    
     2    1   67 1    
     3    1   68 1    
     4    1   69 1    
     5    2    3 2    
     6    2    4 am   BACKBONE|DICT|INTERRES
     7    4    5 1    
     8    4   70 1    
     9    5    6 1    
    10    5   65 1    
    11    5   71 1    
    12    6    7 1    
    13    6   72 1    
    14    6   73 1    
    15    7    8 1    
    16    8    9 1    
    17    8   74 1    
    18    8   75 1    
    19    9   10 ar   
    20    9   14 ar   
    21   10   11 ar   
    22   10   76 1    
    23   11   12 ar   
    24   11   48 1    
    25   12   13 ar   
    26   12   77 1    
    27   13   14 ar   
    28   13   15 1    
    29   14   78 1    
    30   15   16 1    
    31   15   79 1    
    32   15   80 1    
    33   16   17 1    
    34   17   18 1    
    35   17   81 1    
    36   17   82 1    
    37   18   19 1    
    38   18   22 1    
    39   18   83 1    
    40   19   20 am   BACKBONE|DICT|INTERRES
    41   19   21 2    
    42   20   84 1    
    43   20   85 1    
    44   22   23 am   BACKBONE|DICT|INTERRES
    45   22   86 1    
    46   23   24 2    
    47   23   25 1    
    48   25   26 1    
    49   25   27 1    
    50   25   87 1    
    51   26   88 1    
    52   26   89 1    
    53   26   90 1    
    54   27   28 am   BACKBONE|DICT|INTERRES
    55   27   91 1    
    56   28   29 2    
    57   28   30 1    
    58   30   31 1    
    59   30   32 1    
    60   30   92 1    
    61   31   93 1    
    62   31   94 1    
    63   31   95 1    
    64   32   33 am   BACKBONE|DICT|INTERRES
    65   32   96 1    
    66   33   34 2    
    67   33   35 1    
    68   35   36 1    
    69   35   37 1    
    70   35   97 1    
    71   36   98 1    
    72   36   99 1    
    73   36  100 1    
    74   37   38 am   BACKBONE|DICT|INTERRES
    75   37  101 1    
    76   38   39 2    
    77   38   40 1    
    78   40   41 1    
    79   40   42 1    
    80   40  102 1    
    81   41  103 1    
    82   41  104 1    
    83   41  105 1    
    84   42   43 am   BACKBONE|DICT|INTERRES
    85   42  106 1    
    86   43   44 2    
    87   43   45 1    
    88   45   46 1    
    89   45   49 1    
    90   45  107 1    
    91   46   47 1    
    92   46  108 1    
    93   46  109 1    
    94   47   48 1    
    95   48  110 1    
    96   48  111 1    
    97   49   50 am   BACKBONE|DICT|INTERRES
    98   49  112 1    
    99   50   51 2    
   100   50   52 1    
   101   52   53 1    
   102   52   54 1    
   103   52  113 1    
   104   53  114 1    
   105   53  115 1    
   106   53  116 1    
   107   54   55 am   BACKBONE|DICT|INTERRES
   108   54  117 1    
   109   55   56 2    
   110   55   57 1    
   111   57   58 1    
   112   57   59 1    
   113   57  118 1    
   114   58  119 1    
   115   58  120 1    
   116   58  121 1    
   117   59   60 am   BACKBONE|DICT|INTERRES
   118   59  122 1    
   119   60   61 2    
   120   60   62 1    
   121   62   63 1    
   122   62   64 1    
   123   62  123 1    
   124   63  124 1    
   125   63  125 1    
   126   63  126 1    
   127   64   65 am   BACKBONE|DICT|INTERRES
   128   64  127 1    
   129   65   66 2    
@<TRIPOS>SUBSTRUCTURE
     1 UNK         1 GROUP             0       ****    0 ROOT    
