@<TRIPOS>MOLECULE
3R134
127   129    1
SMALL
USER_CHARGES


@<TRIPOS>ATOM
      1 CA         38.2509  -45.4962  -51.2517 C.3       0 UNK        -0.1968 
      2 C          37.1954  -45.9795  -52.2349 C.2       0 UNK         0.4852 
      3 O          37.1168  -47.1780  -52.5092 O.2       0 UNK        -0.5359 
      4 N          36.3737  -45.0596  -52.7600 N.am      1 UNK        -0.4300 
      5 CA         35.3048  -45.3418  -53.7278 C.3       1 UNK         0.0863 
      6 C6         34.8812  -44.0676  -54.5022 C.3       11 UNK        -0.0953 
      7 S7         34.0950  -42.7825  -53.4643 S.3       11 UNK        -0.2369 
      8 C8         32.8757  -42.0550  -54.6099 C.3       11 UNK         0.0226 
      9 C9         31.7946  -43.0445  -55.0267 C.ar      11 UNK        -0.0699 
     10 C10        30.8240  -43.4567  -54.1101 C.ar      11 UNK        -0.0804 
     11 C11        29.8421  -44.3804  -54.4813 C.ar      11 UNK        -0.0871 
     12 C12        29.8403  -44.8986  -55.7803 C.ar      11 UNK        -0.1008 
     13 C13        30.7775  -44.4573  -56.7232 C.ar      11 UNK        -0.0735 
     14 C14        31.7553  -43.5366  -56.3347 C.ar      11 UNK        -0.0945 
     15 C15        30.7579  -44.9688  -58.1611 C.3       11 UNK         0.0169 
     16 S16        29.0909  -45.0383  -58.8952 S.3       11 UNK        -0.2669 
     17 C17        28.6170  -43.2736  -58.9880 C.3       11 UNK        -0.0850 
     18 CA         27.8827  -42.7248  -57.7243 C.3       10 UNK         0.0855 
     19 C          27.4324  -41.2430  -57.8976 C.2       10 UNK         0.5543 
     20 N          26.3189  -40.8190  -57.3121 N.am      10 UNK        -0.7343 
     21 O          28.1155  -40.4548  -58.5473 O.2       10 UNK        -0.5027 
     22 N          26.8475  -43.6329  -57.1938 N.am      10 UNK        -0.4495 
     23 C          25.7563  -44.0526  -57.8427 C.2       10 UNK         0.4903 
     24 O          25.4286  -43.6824  -58.9718 O.2       10 UNK        -0.4860 
     25 CA         24.8931  -45.0909  -57.1112 C.3       9 UNK         0.0227 
     26 CB         23.4187  -44.6552  -57.0522 C.3       9 UNK        -0.1964 
     27 N          24.9981  -46.3708  -57.8089 N.am      9 UNK        -0.4231 
     28 C          26.0108  -47.2332  -57.6565 C.2       9 UNK         0.5014 
     29 O          26.9025  -47.1084  -56.8162 O.2       9 UNK        -0.5270 
     30 CA         26.0428  -48.4107  -58.6355 C.3       8 UNK         0.0284 
     31 CB         26.6312  -47.9717  -59.9908 C.3       8 UNK        -0.1977 
     32 N          26.8354  -49.5096  -58.0843 N.am      8 UNK        -0.4342 
     33 C          26.7085  -50.7906  -58.4554 C.2       8 UNK         0.5039 
     34 O          25.8875  -51.1814  -59.2871 O.2       8 UNK        -0.5547 
     35 CA         27.6425  -51.8184  -57.8021 C.3       7 UNK         0.0281 
     36 CB         29.0268  -51.8014  -58.4732 C.3       7 UNK        -0.1963 
     37 N          27.7848  -51.5871  -56.3652 N.am      7 UNK        -0.4444 
     38 C          27.0172  -52.1598  -55.4263 C.2       7 UNK         0.5104 
     39 O          26.1040  -52.9470  -55.6782 O.2       7 UNK        -0.5100 
     40 CA         27.3206  -51.8261  -53.9526 C.3       6 UNK         0.0396 
     41 CB         28.1492  -52.9502  -53.3104 C.3       6 UNK        -0.1801 
     42 N          28.0323  -50.5598  -53.7837 N.am      6 UNK        -0.4747 
     43 C          27.4788  -49.3466  -53.9250 C.2       6 UNK         0.5012 
     44 O          26.2742  -49.1656  -54.1036 O.2       6 UNK        -0.5003 
     45 CA         28.4348  -48.1357  -53.8771 C.3       5 UNK         0.0782 
     46 C46        28.3390  -47.4367  -52.4987 C.3       11 UNK        -0.0868 
     47 S47        29.4570  -46.0117  -52.3024 S.3       11 UNK        -0.2515 
     48 C48        28.7816  -44.8013  -53.4762 C.3       11 UNK         0.0199 
     49 N          29.8150  -48.4722  -54.2565 N.am      5 UNK        -0.4607 
     50 C          30.1830  -48.9288  -55.4632 C.2       4 UNK         0.5031 
     51 O          29.3827  -49.1569  -56.3702 O.2       4 UNK        -0.5119 
     52 CA         31.6711  -49.2259  -55.7044 C.3       4 UNK         0.0263 
     53 CB         32.2890  -48.1645  -56.6259 C.3       4 UNK        -0.1967 
     54 N          32.4510  -49.3139  -54.4683 N.am      4 UNK        -0.4237 
     55 C          32.4905  -50.3973  -53.6776 C.2       3 UNK         0.4908 
     56 O          31.8522  -51.4259  -53.9046 O.2       3 UNK        -0.5102 
     57 CA         33.3836  -50.3351  -52.4229 C.3       3 UNK         0.0241 
     58 CB         34.7598  -50.9549  -52.7139 C.3       3 UNK        -0.1971 
     59 N          33.5691  -48.9791  -51.9019 N.am      3 UNK        -0.4139 
     60 C          32.5963  -48.2377  -51.3548 C.2       2 UNK         0.5016 
     61 O          31.4563  -48.6568  -51.1546 O.2       2 UNK        -0.5319 
     62 CA         32.9389  -46.7788  -50.9950 C.3       2 UNK         0.0286 
     63 CB         33.2819  -46.6651  -49.5011 C.3       2 UNK        -0.1963 
     64 N          34.0206  -46.1705  -51.7807 N.am      2 UNK        -0.4790 
     65 C          34.0947  -46.0895  -53.1199 C.2       1 UNK         0.5024 
     66 O          33.2690  -46.6003  -53.8749 O.2       1 UNK        -0.4888 
     67 H67        38.1161  -45.9836  -50.2865 H         1 UNK         0.0892 
     68 H68        39.2465  -45.7408  -51.6209 H         1 UNK         0.0892 
     69 H69        38.2022  -44.4184  -51.0974 H         1 UNK         0.0892 
     70 H70        36.4708  -44.0891  -52.4945 H         1 UNK         0.3107 
     71 H71        35.7251  -46.0272  -54.4674 H         1 UNK         0.0773 
     72 H72        34.2117  -44.3467  -55.3160 H         1 UNK         0.0680 
     73 H73        35.7521  -43.6230  -54.9859 H         1 UNK         0.0680 
     74 H74        33.4000  -41.6616  -55.4822 H         1 UNK         0.0650 
     75 H75        32.4068  -41.1982  -54.1241 H         1 UNK         0.0650 
     76 H76        30.8419  -43.0678  -53.1012 H         1 UNK         0.1397 
     77 H77        29.0920  -45.6239  -56.0711 H         1 UNK         0.1363 
     78 H78        32.4943  -43.2057  -57.0515 H         1 UNK         0.1355 
     79 H79        31.3929  -44.3543  -58.8010 H         1 UNK         0.0707 
     80 H80        31.1829  -45.9709  -58.1810 H         1 UNK         0.0707 
     81 H81        29.5112  -42.6819  -59.1916 H         1 UNK         0.1034 
     82 H82        27.9793  -43.1554  -59.8657 H         1 UNK         0.1034 
     83 H83        28.6264  -42.6675  -56.9308 H         1 UNK         0.0482 
     84 H84        25.7550  -41.4542  -56.7711 H         1 UNK         0.3460 
     85 H85        26.0379  -39.8571  -57.4196 H         1 UNK         0.3460 
     86 H86        27.0353  -44.0092  -56.2769 H         1 UNK         0.2989 
     87 H87        25.2505  -45.2067  -56.0853 H         1 UNK         0.0559 
     88 H88        22.9880  -44.5339  -58.0471 H         1 UNK         0.0848 
     89 H89        23.3162  -43.7002  -56.5353 H         1 UNK         0.0848 
     90 H90        22.8124  -45.3820  -56.5115 H         1 UNK         0.0848 
     91 H91        24.3362  -46.5278  -58.5555 H         1 UNK         0.3144 
     92 H92        25.0151  -48.7517  -58.7793 H         1 UNK         0.0727 
     93 H93        26.0816  -47.1270  -60.4081 H         1 UNK         0.0790 
     94 H94        26.5896  -48.7768  -60.7244 H         1 UNK         0.0790 
     95 H95        27.6730  -47.6641  -59.8909 H         1 UNK         0.0790 
     96 H96        27.5268  -49.2375  -57.3888 H         1 UNK         0.3215 
     97 H97        27.2128  -52.8091  -57.9674 H         1 UNK         0.0863 
     98 H98        29.5112  -50.8281  -58.3929 H         1 UNK         0.0808 
     99 H99        28.9436  -52.0331  -59.5359 H         1 UNK         0.0808 
    100 H100       29.6911  -52.5440  -58.0311 H         1 UNK         0.0808 
    101 H101       28.4667  -50.8886  -56.0888 H         1 UNK         0.3118 
    102 H102       26.3669  -51.7611  -53.4245 H         1 UNK         0.0546 
    103 H103       29.1263  -53.0538  -53.7847 H         1 UNK         0.0828 
    104 H104       27.6399  -53.9109  -53.3993 H         1 UNK         0.0828 
    105 H105       28.3097  -52.7681  -52.2477 H         1 UNK         0.0828 
    106 H106       29.0302  -50.6130  -53.6295 H         1 UNK         0.3005 
    107 H107       28.0716  -47.4382  -54.6309 H         1 UNK         0.1257 
    108 H108       28.5773  -48.1433  -51.7010 H         1 UNK         0.0775 
    109 H109       27.3183  -47.0982  -52.3094 H         1 UNK         0.0775 
    110 H110       27.9029  -45.1985  -53.9851 H         1 UNK         0.0840 
    111 H111       28.4363  -43.9279  -52.9209 H         1 UNK         0.0840 
    112 H112       30.5233  -48.3006  -53.5560 H         1 UNK         0.2987 
    113 H113       31.7297  -50.1875  -56.2193 H         1 UNK         0.0785 
    114 H114       31.8005  -48.1741  -57.6008 H         1 UNK         0.0798 
    115 H115       33.3501  -48.3482  -56.7938 H         1 UNK         0.0798 
    116 H116       32.1812  -47.1602  -56.2143 H         1 UNK         0.0798 
    117 H117       32.9416  -48.4681  -54.1892 H         1 UNK         0.3079 
    118 H118       32.8972  -50.9300  -51.6468 H         1 UNK         0.0794 
    119 H119       34.6579  -51.9762  -53.0840 H         1 UNK         0.0786 
    120 H120       35.3741  -50.9980  -51.8143 H         1 UNK         0.0786 
    121 H121       35.3072  -50.3874  -53.4678 H         1 UNK         0.0786 
    122 H122       34.4782  -48.5556  -52.0271 H         1 UNK         0.3032 
    123 H123       32.0441  -46.1854  -51.1819 H         1 UNK         0.1094 
    124 H124       32.4843  -47.0828  -48.8847 H         1 UNK         0.0794 
    125 H125       34.1992  -47.2018  -49.2556 H         1 UNK         0.0794 
    126 H126       33.4081  -45.6250  -49.1997 H         1 UNK         0.0794 
    127 H127       34.7574  -45.7249  -51.2541 H         1 UNK         0.3016 
@<TRIPOS>BOND
     1    1    2 1    
     2    1   67 1    
     3    1   68 1    
     4    1   69 1    
     5    2    3 2    
     6    2    4 am   BACKBONE|DICT|INTERRES
     7    4    5 1    
     8    4   70 1    
     9    5    6 1    
    10    5   65 1    
    11    5   71 1    
    12    6    7 1    
    13    6   72 1    
    14    6   73 1    
    15    7    8 1    
    16    8    9 1    
    17    8   74 1    
    18    8   75 1    
    19    9   10 ar   
    20    9   14 ar   
    21   10   11 ar   
    22   10   76 1    
    23   11   12 ar   
    24   11   48 1    
    25   12   13 ar   
    26   12   77 1    
    27   13   14 ar   
    28   13   15 1    
    29   14   78 1    
    30   15   16 1    
    31   15   79 1    
    32   15   80 1    
    33   16   17 1    
    34   17   18 1    
    35   17   81 1    
    36   17   82 1    
    37   18   19 1    
    38   18   22 1    
    39   18   83 1    
    40   19   20 am   BACKBONE|DICT|INTERRES
    41   19   21 2    
    42   20   84 1    
    43   20   85 1    
    44   22   23 am   BACKBONE|DICT|INTERRES
    45   22   86 1    
    46   23   24 2    
    47   23   25 1    
    48   25   26 1    
    49   25   27 1    
    50   25   87 1    
    51   26   88 1    
    52   26   89 1    
    53   26   90 1    
    54   27   28 am   BACKBONE|DICT|INTERRES
    55   27   91 1    
    56   28   29 2    
    57   28   30 1    
    58   30   31 1    
    59   30   32 1    
    60   30   92 1    
    61   31   93 1    
    62   31   94 1    
    63   31   95 1    
    64   32   33 am   BACKBONE|DICT|INTERRES
    65   32   96 1    
    66   33   34 2    
    67   33   35 1    
    68   35   36 1    
    69   35   37 1    
    70   35   97 1    
    71   36   98 1    
    72   36   99 1    
    73   36  100 1    
    74   37   38 am   BACKBONE|DICT|INTERRES
    75   37  101 1    
    76   38   39 2    
    77   38   40 1    
    78   40   41 1    
    79   40   42 1    
    80   40  102 1    
    81   41  103 1    
    82   41  104 1    
    83   41  105 1    
    84   42   43 am   BACKBONE|DICT|INTERRES
    85   42  106 1    
    86   43   44 2    
    87   43   45 1    
    88   45   46 1    
    89   45   49 1    
    90   45  107 1    
    91   46   47 1    
    92   46  108 1    
    93   46  109 1    
    94   47   48 1    
    95   48  110 1    
    96   48  111 1    
    97   49   50 am   BACKBONE|DICT|INTERRES
    98   49  112 1    
    99   50   51 2    
   100   50   52 1    
   101   52   53 1    
   102   52   54 1    
   103   52  113 1    
   104   53  114 1    
   105   53  115 1    
   106   53  116 1    
   107   54   55 am   BACKBONE|DICT|INTERRES
   108   54  117 1    
   109   55   56 2    
   110   55   57 1    
   111   57   58 1    
   112   57   59 1    
   113   57  118 1    
   114   58  119 1    
   115   58  120 1    
   116   58  121 1    
   117   59   60 am   BACKBONE|DICT|INTERRES
   118   59  122 1    
   119   60   61 2    
   120   60   62 1    
   121   62   63 1    
   122   62   64 1    
   123   62  123 1    
   124   63  124 1    
   125   63  125 1    
   126   63  126 1    
   127   64   65 am   BACKBONE|DICT|INTERRES
   128   64  127 1    
   129   65   66 2    
@<TRIPOS>SUBSTRUCTURE
     1 UNK         1 GROUP             0       ****    0 ROOT    
