@<TRIPOS>MOLECULE
3R134
127   129    1
SMALL
USER_CHARGES


@<TRIPOS>ATOM
      1 CA         32.8172  -42.2858  -49.3215 C.3       0 UNK        -0.1968 
      2 C          33.9230  -43.0596  -50.0247 C.2       0 UNK         0.4852 
      3 O          35.0981  -42.8754  -49.7029 O.2       0 UNK        -0.5359 
      4 N          33.5561  -43.9177  -50.9845 N.am      1 UNK        -0.4300 
      5 CA         34.4744  -44.7888  -51.7219 C.3       1 UNK         0.0863 
      6 C6         33.8424  -45.3098  -53.0378 C.3       11 UNK        -0.0953 
      7 S7         33.7246  -43.9966  -54.2971 S.3       11 UNK        -0.2369 
      8 C8         31.9835  -43.4779  -54.1746 C.3       11 UNK         0.0226 
      9 C9         31.0272  -44.4825  -54.8025 C.ar      11 UNK        -0.0699 
     10 C10        30.1489  -45.2206  -54.0037 C.ar      11 UNK        -0.0804 
     11 C11        29.2311  -46.1009  -54.5845 C.ar      11 UNK        -0.0871 
     12 C12        29.2143  -46.2593  -55.9735 C.ar      11 UNK        -0.1008 
     13 C13        30.0799  -45.5194  -56.7858 C.ar      11 UNK        -0.0735 
     14 C14        30.9854  -44.6350  -56.1917 C.ar      11 UNK        -0.0945 
     15 C15        30.0330  -45.6528  -58.3048 C.3       11 UNK         0.0169 
     16 S16        28.3649  -45.3952  -59.0027 S.3       11 UNK        -0.2669 
     17 C17        27.9511  -43.7264  -58.3779 C.3       11 UNK        -0.0850 
     18 CA         26.9351  -43.7878  -57.2013 C.3       10 UNK         0.0855 
     19 C          26.8239  -42.4596  -56.3907 C.2       10 UNK         0.5543 
     20 N          25.7413  -42.2417  -55.6530 N.am      10 UNK        -0.7343 
     21 O          27.7289  -41.6287  -56.4052 O.2       10 UNK        -0.5027 
     22 N          25.6495  -44.3870  -57.5995 N.am      10 UNK        -0.4495 
     23 C          24.6904  -43.8017  -58.3329 C.2       10 UNK         0.4903 
     24 O          24.7902  -42.6697  -58.8077 O.2       10 UNK        -0.4860 
     25 CA         23.3927  -44.5960  -58.5947 C.3       9 UNK         0.0227 
     26 CB         23.2033  -44.8376  -60.1026 C.3       9 UNK        -0.1964 
     27 N          23.3207  -45.8858  -57.9037 N.am      9 UNK        -0.4231 
     28 C          23.1960  -46.0791  -56.5824 C.2       9 UNK         0.5014 
     29 O          23.0432  -45.1669  -55.7696 O.2       9 UNK        -0.5270 
     30 CA         23.2938  -47.5351  -56.0808 C.3       8 UNK         0.0284 
     31 CB         21.9034  -48.0671  -55.6965 C.3       8 UNK        -0.1977 
     32 N          23.9116  -48.4515  -57.0503 N.am      8 UNK        -0.4342 
     33 C          25.1917  -48.3969  -57.4415 C.2       8 UNK         0.5039 
     34 O          26.0183  -47.6052  -56.9786 O.2       8 UNK        -0.5547 
     35 CA         25.5912  -49.3297  -58.5900 C.3       7 UNK         0.0281 
     36 CB         25.0350  -48.8048  -59.9299 C.3       7 UNK        -0.1963 
     37 N          27.0465  -49.3852  -58.6380 N.am      7 UNK        -0.4444 
     38 C          27.7902  -50.2757  -59.3044 C.2       7 UNK         0.5104 
     39 O          27.3255  -51.1827  -59.9956 O.2       7 UNK        -0.5100 
     40 CA         29.3166  -50.1372  -59.1645 C.3       6 UNK         0.0396 
     41 CB         29.8663  -49.1774  -60.2317 C.3       6 UNK        -0.1801 
     42 N          29.7114  -49.6741  -57.8302 N.am      6 UNK        -0.4747 
     43 C          29.6676  -50.4420  -56.7321 C.2       6 UNK         0.5012 
     44 O          29.3680  -51.6386  -56.7421 O.2       6 UNK        -0.5003 
     45 CA         29.9529  -49.7465  -55.3883 C.3       5 UNK         0.0782 
     46 C46        28.6189  -49.4608  -54.6574 C.3       11 UNK        -0.0868 
     47 S47        28.8516  -48.4513  -53.1578 S.3       11 UNK        -0.2515 
     48 C48        28.2241  -46.8363  -53.7121 C.3       11 UNK         0.0199 
     49 N          30.8600  -50.5448  -54.5611 N.am      5 UNK        -0.4607 
     50 C          32.1463  -50.7760  -54.8415 C.2       4 UNK         0.5031 
     51 O          32.7195  -50.3599  -55.8515 O.2       4 UNK        -0.5119 
     52 CA         32.9173  -51.6323  -53.8214 C.3       4 UNK         0.0263 
     53 CB         32.9039  -53.1112  -54.2418 C.3       4 UNK        -0.1967 
     54 N          34.3042  -51.1854  -53.6699 N.am      4 UNK        -0.4237 
     55 C          34.6671  -49.9953  -53.1738 C.2       3 UNK         0.4908 
     56 O          33.8709  -49.1629  -52.7317 O.2       3 UNK        -0.5102 
     57 CA         36.1715  -49.6770  -53.2138 C.3       3 UNK         0.0241 
     58 CB         36.5950  -49.2585  -54.6325 C.3       3 UNK        -0.1971 
     59 N          36.5074  -48.5955  -52.2886 N.am      3 UNK        -0.4139 
     60 C          36.6183  -48.7211  -50.9593 C.2       2 UNK         0.5016 
     61 O          36.5737  -49.7984  -50.3632 O.2       2 UNK        -0.5319 
     62 CA         36.8120  -47.4198  -50.1597 C.3       2 UNK         0.0286 
     63 CB         38.3059  -47.1603  -49.9051 C.3       2 UNK        -0.1963 
     64 N          36.2264  -46.2571  -50.8374 N.am      2 UNK        -0.4790 
     65 C          34.9186  -45.9627  -50.8287 C.2       1 UNK         0.5024 
     66 O          34.0783  -46.5859  -50.1756 O.2       1 UNK        -0.4888 
     67 H67        32.8218  -42.5108  -48.2553 H         1 UNK         0.0892 
     68 H68        32.9725  -41.2143  -49.4447 H         1 UNK         0.0892 
     69 H69        31.8315  -42.5324  -49.7158 H         1 UNK         0.0892 
     70 H70        32.5753  -44.0616  -51.1711 H         1 UNK         0.3107 
     71 H71        35.3619  -44.2048  -51.9774 H         1 UNK         0.0773 
     72 H72        34.4545  -46.1030  -53.4720 H         1 UNK         0.0680 
     73 H73        32.8624  -45.7559  -52.8587 H         1 UNK         0.0680 
     74 H74        31.8720  -42.5210  -54.6864 H         1 UNK         0.0650 
     75 H75        31.7285  -43.2915  -53.1311 H         1 UNK         0.0650 
     76 H76        30.1616  -45.0938  -52.9299 H         1 UNK         0.1397 
     77 H77        28.4929  -46.9223  -56.4291 H         1 UNK         0.1363 
     78 H78        31.6562  -44.0528  -56.8088 H         1 UNK         0.1355 
     79 H79        30.7154  -44.9439  -58.7762 H         1 UNK         0.0707 
     80 H80        30.3883  -46.6447  -58.5819 H         1 UNK         0.0707 
     81 H81        28.8742  -43.2303  -58.0735 H         1 UNK         0.1034 
     82 H82        27.5486  -43.1295  -59.1975 H         1 UNK         0.1034 
     83 H83        27.3365  -44.4807  -56.4659 H         1 UNK         0.0482 
     84 H84        25.6671  -41.3885  -55.1220 H         1 UNK         0.3460 
     85 H85        24.9955  -42.9203  -55.6304 H         1 UNK         0.3460 
     86 H86        25.5030  -45.3355  -57.2794 H         1 UNK         0.2989 
     87 H87        22.5636  -43.9804  -58.2401 H         1 UNK         0.0559 
     88 H88        24.0092  -45.4438  -60.5185 H         1 UNK         0.0848 
     89 H89        23.1900  -43.8954  -60.6523 H         1 UNK         0.0848 
     90 H90        22.2593  -45.3415  -60.3109 H         1 UNK         0.0848 
     91 H91        23.4392  -46.7050  -58.4796 H         1 UNK         0.3144 
     92 H92        23.9176  -47.5258  -55.1843 H         1 UNK         0.0727 
     93 H93        21.9653  -49.0660  -55.2643 H         1 UNK         0.0790 
     94 H94        21.2349  -48.1124  -56.5573 H         1 UNK         0.0790 
     95 H95        21.4318  -47.4239  -54.9520 H         1 UNK         0.0790 
     96 H96        23.3011  -49.1360  -57.4752 H         1 UNK         0.3215 
     97 H97        25.2028  -50.3297  -58.3852 H         1 UNK         0.0863 
     98 H98        25.4134  -47.8069  -60.1568 H         1 UNK         0.0808 
     99 H99        23.9461  -48.7491  -59.9156 H         1 UNK         0.0808 
    100 H100       25.3057  -49.4577  -60.7596 H         1 UNK         0.0808 
    101 H101       27.4916  -48.6735  -58.0718 H         1 UNK         0.3118 
    102 H102       29.7617  -51.1201  -59.3340 H         1 UNK         0.0546 
    103 H103       29.4134  -48.1880  -60.1622 H         1 UNK         0.0828 
    104 H104       29.6578  -49.5553  -61.2336 H         1 UNK         0.0828 
    105 H105       30.9472  -49.0631  -60.1492 H         1 UNK         0.0828 
    106 H106       29.9922  -48.7082  -57.7487 H         1 UNK         0.3005 
    107 H107       30.4539  -48.7968  -55.5891 H         1 UNK         0.1257 
    108 H108       28.1372  -50.3954  -54.3633 H         1 UNK         0.0775 
    109 H109       27.9079  -48.9616  -55.3182 H         1 UNK         0.0775 
    110 H110       27.2782  -46.9616  -54.2426 H         1 UNK         0.0840 
    111 H111       27.9919  -46.2343  -52.8322 H         1 UNK         0.0840 
    112 H112       30.4601  -50.9342  -53.7204 H         1 UNK         0.2987 
    113 H113       32.4308  -51.5422  -52.8476 H         1 UNK         0.0785 
    114 H114       31.8817  -53.4801  -54.3388 H         1 UNK         0.0798 
    115 H115       33.3957  -53.2614  -55.2039 H         1 UNK         0.0798 
    116 H116       33.4049  -53.7395  -53.5051 H         1 UNK         0.0798 
    117 H117       35.0165  -51.7922  -54.0492 H         1 UNK         0.3079 
    118 H118       36.7273  -50.5721  -52.9257 H         1 UNK         0.0794 
    119 H119       36.3996  -50.0535  -55.3533 H         1 UNK         0.0786 
    120 H120       37.6616  -49.0371  -54.6797 H         1 UNK         0.0786 
    121 H121       36.0527  -48.3744  -54.9711 H         1 UNK         0.0786 
    122 H122       36.5231  -47.6642  -52.6744 H         1 UNK         0.3032 
    123 H123       36.3190  -47.5527  -49.1935 H         1 UNK         0.1094 
    124 H124       38.7626  -48.0004  -49.3797 H         1 UNK         0.0794 
    125 H125       38.8583  -47.0190  -50.8349 H         1 UNK         0.0794 
    126 H126       38.4548  -46.2747  -49.2869 H         1 UNK         0.0794 
    127 H127       36.8577  -45.6737  -51.3691 H         1 UNK         0.3016 
@<TRIPOS>BOND
     1    1    2 1    
     2    1   67 1    
     3    1   68 1    
     4    1   69 1    
     5    2    3 2    
     6    2    4 am   BACKBONE|DICT|INTERRES
     7    4    5 1    
     8    4   70 1    
     9    5    6 1    
    10    5   65 1    
    11    5   71 1    
    12    6    7 1    
    13    6   72 1    
    14    6   73 1    
    15    7    8 1    
    16    8    9 1    
    17    8   74 1    
    18    8   75 1    
    19    9   10 ar   
    20    9   14 ar   
    21   10   11 ar   
    22   10   76 1    
    23   11   12 ar   
    24   11   48 1    
    25   12   13 ar   
    26   12   77 1    
    27   13   14 ar   
    28   13   15 1    
    29   14   78 1    
    30   15   16 1    
    31   15   79 1    
    32   15   80 1    
    33   16   17 1    
    34   17   18 1    
    35   17   81 1    
    36   17   82 1    
    37   18   19 1    
    38   18   22 1    
    39   18   83 1    
    40   19   20 am   BACKBONE|DICT|INTERRES
    41   19   21 2    
    42   20   84 1    
    43   20   85 1    
    44   22   23 am   BACKBONE|DICT|INTERRES
    45   22   86 1    
    46   23   24 2    
    47   23   25 1    
    48   25   26 1    
    49   25   27 1    
    50   25   87 1    
    51   26   88 1    
    52   26   89 1    
    53   26   90 1    
    54   27   28 am   BACKBONE|DICT|INTERRES
    55   27   91 1    
    56   28   29 2    
    57   28   30 1    
    58   30   31 1    
    59   30   32 1    
    60   30   92 1    
    61   31   93 1    
    62   31   94 1    
    63   31   95 1    
    64   32   33 am   BACKBONE|DICT|INTERRES
    65   32   96 1    
    66   33   34 2    
    67   33   35 1    
    68   35   36 1    
    69   35   37 1    
    70   35   97 1    
    71   36   98 1    
    72   36   99 1    
    73   36  100 1    
    74   37   38 am   BACKBONE|DICT|INTERRES
    75   37  101 1    
    76   38   39 2    
    77   38   40 1    
    78   40   41 1    
    79   40   42 1    
    80   40  102 1    
    81   41  103 1    
    82   41  104 1    
    83   41  105 1    
    84   42   43 am   BACKBONE|DICT|INTERRES
    85   42  106 1    
    86   43   44 2    
    87   43   45 1    
    88   45   46 1    
    89   45   49 1    
    90   45  107 1    
    91   46   47 1    
    92   46  108 1    
    93   46  109 1    
    94   47   48 1    
    95   48  110 1    
    96   48  111 1    
    97   49   50 am   BACKBONE|DICT|INTERRES
    98   49  112 1    
    99   50   51 2    
   100   50   52 1    
   101   52   53 1    
   102   52   54 1    
   103   52  113 1    
   104   53  114 1    
   105   53  115 1    
   106   53  116 1    
   107   54   55 am   BACKBONE|DICT|INTERRES
   108   54  117 1    
   109   55   56 2    
   110   55   57 1    
   111   57   58 1    
   112   57   59 1    
   113   57  118 1    
   114   58  119 1    
   115   58  120 1    
   116   58  121 1    
   117   59   60 am   BACKBONE|DICT|INTERRES
   118   59  122 1    
   119   60   61 2    
   120   60   62 1    
   121   62   63 1    
   122   62   64 1    
   123   62  123 1    
   124   63  124 1    
   125   63  125 1    
   126   63  126 1    
   127   64   65 am   BACKBONE|DICT|INTERRES
   128   64  127 1    
   129   65   66 2    
@<TRIPOS>SUBSTRUCTURE
     1 UNK         1 GROUP             0       ****    0 ROOT    
