@<TRIPOS>MOLECULE
3R134
127   129    1
SMALL
USER_CHARGES


@<TRIPOS>ATOM
      1 CA         36.6467  -44.0954  -49.3745 C.3       0 UNK        -0.1968 
      2 C          36.7124  -44.5475  -50.8262 C.2       0 UNK         0.4852 
      3 O          37.7989  -44.5796  -51.4070 O.2       0 UNK        -0.5359 
      4 N          35.5592  -44.8884  -51.4164 N.am      1 UNK        -0.4300 
      5 CA         35.4403  -45.4119  -52.7803 C.3       1 UNK         0.0863 
      6 C6         33.9940  -45.2458  -53.3122 C.3       11 UNK        -0.0953 
      7 S7         33.9192  -45.1878  -55.1342 S.3       11 UNK        -0.2369 
      8 C8         32.2211  -45.7562  -55.4565 C.3       11 UNK         0.0226 
      9 C9         31.1830  -44.7179  -55.0563 C.ar      11 UNK        -0.0699 
     10 C10        30.6415  -44.7211  -53.7676 C.ar      11 UNK        -0.0804 
     11 C11        29.6724  -43.7807  -53.4005 C.ar      11 UNK        -0.0871 
     12 C12        29.2542  -42.8318  -54.3368 C.ar      11 UNK        -0.1008 
     13 C13        29.7917  -42.8069  -55.6268 C.ar      11 UNK        -0.0735 
     14 C14        30.7601  -43.7557  -55.9786 C.ar      11 UNK        -0.0945 
     15 C15        29.3356  -41.7067  -56.5850 C.3       11 UNK         0.0169 
     16 S16        29.4101  -42.1273  -58.3620 S.3       11 UNK        -0.2669 
     17 C17        28.1476  -43.4231  -58.6608 C.3       11 UNK        -0.0850 
     18 CA         26.9918  -43.6249  -57.6290 C.3       10 UNK         0.0855 
     19 C          25.8879  -42.5217  -57.6407 C.2       10 UNK         0.5543 
     20 N          26.1704  -41.3293  -58.1476 N.am      10 UNK        -0.7343 
     21 O          24.7829  -42.7246  -57.1406 O.2       10 UNK        -0.5027 
     22 N          26.4404  -44.9837  -57.7365 N.am      10 UNK        -0.4495 
     23 C          25.7763  -45.4794  -58.7910 C.2       10 UNK         0.4903 
     24 O          25.4624  -44.8240  -59.7866 O.2       10 UNK        -0.4860 
     25 CA         25.4748  -46.9876  -58.7313 C.3       9 UNK         0.0227 
     26 CB         24.8449  -47.5424  -60.0261 C.3       9 UNK        -0.1964 
     27 N          26.6719  -47.7488  -58.3582 N.am      9 UNK        -0.4231 
     28 C          27.8511  -47.8032  -58.9994 C.2       9 UNK         0.5014 
     29 O          28.0770  -47.2784  -60.0904 O.2       9 UNK        -0.5270 
     30 CA         28.9893  -48.5540  -58.2843 C.3       8 UNK         0.0284 
     31 CB         29.8673  -47.5592  -57.5073 C.3       8 UNK        -0.1977 
     32 N          28.5063  -49.5808  -57.3597 N.am      8 UNK        -0.4342 
     33 C          27.8910  -50.7148  -57.7224 C.2       8 UNK         0.5039 
     34 O          27.7569  -51.0854  -58.8890 O.2       8 UNK        -0.5547 
     35 CA         27.2839  -51.5496  -56.5857 C.3       7 UNK         0.0281 
     36 CB         28.3584  -52.4134  -55.9046 C.3       7 UNK        -0.1963 
     37 N          26.6169  -50.6972  -55.5957 N.am      7 UNK        -0.4444 
     38 C          25.4238  -50.1134  -55.7839 C.2       7 UNK         0.5104 
     39 O          24.7355  -50.2743  -56.7910 O.2       7 UNK        -0.5100 
     40 CA         24.9098  -49.1814  -54.6724 C.3       6 UNK         0.0396 
     41 CB         24.0308  -49.9633  -53.6838 C.3       6 UNK        -0.1801 
     42 N          25.9860  -48.5125  -53.9385 N.am      6 UNK        -0.4747 
     43 C          26.7048  -47.4812  -54.4060 C.2       6 UNK         0.5012 
     44 O          26.5248  -46.9582  -55.5065 O.2       6 UNK        -0.5003 
     45 CA         27.8501  -46.9816  -53.5048 C.3       5 UNK         0.0782 
     46 C46        27.3374  -45.9088  -52.5107 C.3       11 UNK        -0.0868 
     47 S47        28.6244  -45.3706  -51.3307 S.3       11 UNK        -0.2515 
     48 C48        29.1006  -43.7389  -51.9863 C.3       11 UNK         0.0199 
     49 N          28.5638  -48.0713  -52.8251 N.am      5 UNK        -0.4607 
     50 C          29.2162  -49.0637  -53.4375 C.2       4 UNK         0.5031 
     51 O          29.1716  -49.2661  -54.6526 O.2       4 UNK        -0.5119 
     52 CA         30.0257  -50.0114  -52.5396 C.3       4 UNK         0.0263 
     53 CB         29.1781  -51.2293  -52.1387 C.3       4 UNK        -0.1967 
     54 N          31.2377  -50.4627  -53.2259 N.am      4 UNK        -0.4237 
     55 C          32.2736  -49.6630  -53.5096 C.2       3 UNK         0.4908 
     56 O          32.3766  -48.5024  -53.1041 O.2       3 UNK        -0.5102 
     57 CA         33.3588  -50.2528  -54.4175 C.3       3 UNK         0.0241 
     58 CB         32.8517  -50.3941  -55.8649 C.3       3 UNK        -0.1971 
     59 N          34.5196  -49.3677  -54.4031 N.am      3 UNK        -0.4139 
     60 C          35.8002  -49.7502  -54.3915 C.2       2 UNK         0.5016 
     61 O          36.1596  -50.9279  -54.4367 O.2       2 UNK        -0.5319 
     62 CA         36.8735  -48.6441  -54.3347 C.3       2 UNK         0.0286 
     63 CB         37.6619  -48.5927  -55.6547 C.3       2 UNK        -0.1963 
     64 N          36.3506  -47.3020  -54.0502 N.am      2 UNK        -0.4790 
     65 C          35.9239  -46.8783  -52.8533 C.2       1 UNK         0.5024 
     66 O          35.8898  -47.5971  -51.8512 O.2       1 UNK        -0.4888 
     67 H67        35.6264  -44.0989  -48.9913 H         1 UNK         0.0892 
     68 H68        37.2458  -44.7564  -48.7487 H         1 UNK         0.0892 
     69 H69        37.0411  -43.0842  -49.2780 H         1 UNK         0.0892 
     70 H70        34.7058  -44.8764  -50.8767 H         1 UNK         0.3107 
     71 H71        36.1052  -44.8115  -53.4060 H         1 UNK         0.0773 
     72 H72        33.3418  -46.0321  -52.9291 H         1 UNK         0.0680 
     73 H73        33.5689  -44.3049  -52.9584 H         1 UNK         0.0680 
     74 H74        32.0358  -46.6989  -54.9423 H         1 UNK         0.0650 
     75 H75        32.1319  -45.9723  -56.5216 H         1 UNK         0.0650 
     76 H76        30.9744  -45.4585  -53.0500 H         1 UNK         0.1397 
     77 H77        28.5187  -42.0909  -54.0532 H         1 UNK         0.1363 
     78 H78        31.1981  -43.7444  -56.9667 H         1 UNK         0.1355 
     79 H79        28.3291  -41.3715  -56.3343 H         1 UNK         0.0707 
     80 H80        29.9821  -40.8433  -56.4234 H         1 UNK         0.0707 
     81 H81        27.7333  -43.2661  -59.6584 H         1 UNK         0.1034 
     82 H82        28.7113  -44.3546  -58.7393 H         1 UNK         0.1034 
     83 H83        27.4100  -43.6024  -56.6256 H         1 UNK         0.0482 
     84 H84        27.0825  -41.1456  -58.5382 H         1 UNK         0.3460 
     85 H85        25.4661  -40.6084  -58.1420 H         1 UNK         0.3460 
     86 H86        26.5944  -45.5952  -56.9402 H         1 UNK         0.2989 
     87 H87        24.7548  -47.1302  -57.9240 H         1 UNK         0.0559 
     88 H88        23.9012  -47.0416  -60.2453 H         1 UNK         0.0848 
     89 H89        24.6339  -48.6082  -59.9368 H         1 UNK         0.0848 
     90 H90        25.4957  -47.4002  -60.8892 H         1 UNK         0.0848 
     91 H91        26.6381  -48.1649  -57.4373 H         1 UNK         0.3144 
     92 H92        29.6022  -49.0406  -59.0458 H         1 UNK         0.0727 
     93 H93        29.3021  -47.0403  -56.7316 H         1 UNK         0.0790 
     94 H94        30.2807  -46.7999  -58.1725 H         1 UNK         0.0790 
     95 H95        30.7049  -48.0634  -57.0267 H         1 UNK         0.0790 
     96 H96        28.6474  -49.4034  -56.3649 H         1 UNK         0.3215 
     97 H97        26.5393  -52.2195  -57.0221 H         1 UNK         0.0863 
     98 H98        27.9317  -53.0238  -55.1088 H         1 UNK         0.0808 
     99 H99        29.1590  -51.8098  -55.4771 H         1 UNK         0.0808 
    100 H100       28.8174  -53.0943  -56.6225 H         1 UNK         0.0808 
    101 H101       27.1430  -50.4622  -54.7665 H         1 UNK         0.3118 
    102 H102       24.2893  -48.4162  -55.1441 H         1 UNK         0.0546 
    103 H103       24.5940  -50.7407  -53.1660 H         1 UNK         0.0828 
    104 H104       23.2027  -50.4510  -54.2003 H         1 UNK         0.0828 
    105 H105       23.5966  -49.3045  -52.9316 H         1 UNK         0.0828 
    106 H106       26.2098  -48.8728  -53.0216 H         1 UNK         0.3005 
    107 H107       28.5708  -46.5059  -54.1726 H         1 UNK         0.1257 
    108 H108       26.5018  -46.2968  -51.9249 H         1 UNK         0.0775 
    109 H109       26.9519  -45.0408  -53.0496 H         1 UNK         0.0775 
    110 H110       28.2308  -43.0816  -51.9379 H         1 UNK         0.0840 
    111 H111       29.8496  -43.3033  -51.3237 H         1 UNK         0.0840 
    112 H112       28.6515  -47.9708  -51.8238 H         1 UNK         0.2987 
    113 H113       30.3222  -49.4759  -51.6349 H         1 UNK         0.0785 
    114 H114       28.2790  -50.9217  -51.6030 H         1 UNK         0.0798 
    115 H115       29.7324  -51.8963  -51.4781 H         1 UNK         0.0798 
    116 H116       28.8586  -51.8078  -53.0054 H         1 UNK         0.0798 
    117 H117       31.2161  -51.3920  -53.6188 H         1 UNK         0.3079 
    118 H118       33.6293  -51.2349  -54.0234 H         1 UNK         0.0794 
    119 H119       33.6135  -50.8353  -56.5079 H         1 UNK         0.0786 
    120 H120       32.5778  -49.4275  -56.2886 H         1 UNK         0.0786 
    121 H121       31.9714  -51.0357  -55.9206 H         1 UNK         0.0786 
    122 H122       34.3029  -48.3883  -54.2720 H         1 UNK         0.3032 
    123 H123       37.5651  -48.9173  -53.5343 H         1 UNK         0.1094 
    124 H124       37.0231  -48.3203  -56.4958 H         1 UNK         0.0794 
    125 H125       38.4777  -47.8713  -55.6030 H         1 UNK         0.0794 
    126 H126       38.1061  -49.5624  -55.8843 H         1 UNK         0.0794 
    127 H127       36.3150  -46.6580  -54.8289 H         1 UNK         0.3016 
@<TRIPOS>BOND
     1    1    2 1    
     2    1   67 1    
     3    1   68 1    
     4    1   69 1    
     5    2    3 2    
     6    2    4 am   BACKBONE|DICT|INTERRES
     7    4    5 1    
     8    4   70 1    
     9    5    6 1    
    10    5   65 1    
    11    5   71 1    
    12    6    7 1    
    13    6   72 1    
    14    6   73 1    
    15    7    8 1    
    16    8    9 1    
    17    8   74 1    
    18    8   75 1    
    19    9   10 ar   
    20    9   14 ar   
    21   10   11 ar   
    22   10   76 1    
    23   11   12 ar   
    24   11   48 1    
    25   12   13 ar   
    26   12   77 1    
    27   13   14 ar   
    28   13   15 1    
    29   14   78 1    
    30   15   16 1    
    31   15   79 1    
    32   15   80 1    
    33   16   17 1    
    34   17   18 1    
    35   17   81 1    
    36   17   82 1    
    37   18   19 1    
    38   18   22 1    
    39   18   83 1    
    40   19   20 am   BACKBONE|DICT|INTERRES
    41   19   21 2    
    42   20   84 1    
    43   20   85 1    
    44   22   23 am   BACKBONE|DICT|INTERRES
    45   22   86 1    
    46   23   24 2    
    47   23   25 1    
    48   25   26 1    
    49   25   27 1    
    50   25   87 1    
    51   26   88 1    
    52   26   89 1    
    53   26   90 1    
    54   27   28 am   BACKBONE|DICT|INTERRES
    55   27   91 1    
    56   28   29 2    
    57   28   30 1    
    58   30   31 1    
    59   30   32 1    
    60   30   92 1    
    61   31   93 1    
    62   31   94 1    
    63   31   95 1    
    64   32   33 am   BACKBONE|DICT|INTERRES
    65   32   96 1    
    66   33   34 2    
    67   33   35 1    
    68   35   36 1    
    69   35   37 1    
    70   35   97 1    
    71   36   98 1    
    72   36   99 1    
    73   36  100 1    
    74   37   38 am   BACKBONE|DICT|INTERRES
    75   37  101 1    
    76   38   39 2    
    77   38   40 1    
    78   40   41 1    
    79   40   42 1    
    80   40  102 1    
    81   41  103 1    
    82   41  104 1    
    83   41  105 1    
    84   42   43 am   BACKBONE|DICT|INTERRES
    85   42  106 1    
    86   43   44 2    
    87   43   45 1    
    88   45   46 1    
    89   45   49 1    
    90   45  107 1    
    91   46   47 1    
    92   46  108 1    
    93   46  109 1    
    94   47   48 1    
    95   48  110 1    
    96   48  111 1    
    97   49   50 am   BACKBONE|DICT|INTERRES
    98   49  112 1    
    99   50   51 2    
   100   50   52 1    
   101   52   53 1    
   102   52   54 1    
   103   52  113 1    
   104   53  114 1    
   105   53  115 1    
   106   53  116 1    
   107   54   55 am   BACKBONE|DICT|INTERRES
   108   54  117 1    
   109   55   56 2    
   110   55   57 1    
   111   57   58 1    
   112   57   59 1    
   113   57  118 1    
   114   58  119 1    
   115   58  120 1    
   116   58  121 1    
   117   59   60 am   BACKBONE|DICT|INTERRES
   118   59  122 1    
   119   60   61 2    
   120   60   62 1    
   121   62   63 1    
   122   62   64 1    
   123   62  123 1    
   124   63  124 1    
   125   63  125 1    
   126   63  126 1    
   127   64   65 am   BACKBONE|DICT|INTERRES
   128   64  127 1    
   129   65   66 2    
@<TRIPOS>SUBSTRUCTURE
     1 UNK         1 GROUP             0       ****    0 ROOT    
