@<TRIPOS>MOLECULE
3R134
127   129    1
SMALL
USER_CHARGES


@<TRIPOS>ATOM
      1 CA         38.2478  -48.0139  -52.0194 C.3       0 UNK        -0.1968 
      2 C          36.8635  -48.0852  -52.6461 C.2       0 UNK         0.4852 
      3 O          36.2281  -49.1396  -52.6036 O.2       0 UNK        -0.5359 
      4 N          36.3827  -46.9668  -53.2112 N.am      1 UNK        -0.4300 
      5 CA         35.0865  -46.8461  -53.8965 C.3       1 UNK         0.0863 
      6 C6         34.9464  -45.4753  -54.6066 C.3       11 UNK        -0.0953 
      7 S7         33.7904  -45.5174  -56.0207 S.3       11 UNK        -0.2369 
      8 C8         33.4483  -43.7412  -56.2393 C.3       11 UNK         0.0226 
      9 C9         32.0743  -43.3253  -55.7238 C.ar      11 UNK        -0.0699 
     10 C10        31.6822  -43.5931  -54.4072 C.ar      11 UNK        -0.0804 
     11 C11        30.4285  -43.1835  -53.9412 C.ar      11 UNK        -0.0871 
     12 C12        29.5730  -42.4774  -54.7955 C.ar      11 UNK        -0.1008 
     13 C13        29.9562  -42.1925  -56.1087 C.ar      11 UNK        -0.0735 
     14 C14        31.2039  -42.6257  -56.5663 C.ar      11 UNK        -0.0945 
     15 C15        29.0532  -41.3731  -57.0227 C.3       11 UNK         0.0169 
     16 S16        27.8767  -42.4037  -57.9583 S.3       11 UNK        -0.2669 
     17 C17        26.4606  -42.5302  -56.8101 C.3       11 UNK        -0.0850 
     18 CA         26.3101  -43.9454  -56.1827 C.3       10 UNK         0.0855 
     19 C          25.2760  -43.9862  -55.0171 C.2       10 UNK         0.5543 
     20 N          24.4890  -45.0446  -54.8574 N.am      10 UNK        -0.7343 
     21 O          25.2088  -43.0563  -54.2173 O.2       10 UNK        -0.5027 
     22 N          26.1572  -45.0299  -57.1662 N.am      10 UNK        -0.4495 
     23 C          25.1697  -45.1741  -58.0604 C.2       10 UNK         0.4903 
     24 O          24.2760  -44.3478  -58.2454 O.2       10 UNK        -0.4860 
     25 CA         25.1529  -46.4830  -58.8719 C.3       9 UNK         0.0227 
     26 CB         25.8415  -46.2764  -60.2295 C.3       9 UNK        -0.1964 
     27 N          25.7663  -47.6143  -58.1633 N.am      9 UNK        -0.4231 
     28 C          25.2462  -48.1855  -57.0642 C.2       9 UNK         0.5014 
     29 O          24.1769  -47.8262  -56.5676 O.2       9 UNK        -0.5270 
     30 CA         26.0495  -49.2908  -56.3483 C.3       8 UNK         0.0284 
     31 CB         25.1959  -50.5419  -56.0533 C.3       8 UNK        -0.1977 
     32 N          27.3259  -49.6355  -56.9841 N.am      8 UNK        -0.4342 
     33 C          27.5551  -50.3277  -58.1085 C.2       8 UNK         0.5039 
     34 O          26.6758  -50.8390  -58.8028 O.2       8 UNK        -0.5547 
     35 CA         29.0369  -50.4263  -58.5251 C.3       7 UNK         0.0281 
     36 CB         29.2328  -50.9255  -59.9729 C.3       7 UNK        -0.1963 
     37 N          29.7585  -49.1670  -58.2878 N.am      7 UNK        -0.4444 
     38 C          29.5035  -47.9777  -58.8543 C.2       7 UNK         0.5104 
     39 O          28.6542  -47.8104  -59.7292 O.2       7 UNK        -0.5100 
     40 CA         30.2917  -46.7703  -58.3044 C.3       6 UNK         0.0396 
     41 CB         29.7452  -45.4231  -58.8160 C.3       6 UNK        -0.1801 
     42 N          30.3847  -46.7597  -56.8385 N.am      6 UNK        -0.4747 
     43 C          29.3693  -46.7961  -55.9607 C.2       6 UNK         0.5012 
     44 O          28.1806  -46.8272  -56.2791 O.2       6 UNK        -0.5003 
     45 CA         29.7507  -46.8642  -54.4698 C.3       5 UNK         0.0782 
     46 C46        28.8996  -45.8848  -53.6210 C.3       11 UNK        -0.0868 
     47 S47        29.8435  -45.2904  -52.1789 S.3       11 UNK        -0.2515 
     48 C48        29.9906  -43.4997  -52.5142 C.3       11 UNK         0.0199 
     49 N          29.6599  -48.2206  -53.9054 N.am      5 UNK        -0.4607 
     50 C          30.0306  -49.3902  -54.4464 C.2       4 UNK         0.5031 
     51 O          30.5340  -49.5221  -55.5627 O.2       4 UNK        -0.5119 
     52 CA         29.7651  -50.6284  -53.5733 C.3       4 UNK         0.0263 
     53 CB         29.5343  -51.9091  -54.4052 C.3       4 UNK        -0.1967 
     54 N          30.8197  -50.8045  -52.5681 N.am      4 UNK        -0.4237 
     55 C          32.1082  -51.1258  -52.7604 C.2       3 UNK         0.4908 
     56 O          32.6055  -51.4152  -53.8497 O.2       3 UNK        -0.5102 
     57 CA         32.9972  -51.0861  -51.5019 C.3       3 UNK         0.0241 
     58 CB         34.2734  -51.9346  -51.6521 C.3       3 UNK        -0.1971 
     59 N          33.3741  -49.7049  -51.2032 N.am      3 UNK        -0.4139 
     60 C          32.5544  -48.7916  -50.6608 C.2       2 UNK         0.5016 
     61 O          31.4397  -49.0654  -50.2118 O.2       2 UNK        -0.5319 
     62 CA         33.0291  -47.3243  -50.6435 C.3       2 UNK         0.0286 
     63 CB         33.5756  -46.9515  -49.2564 C.3       2 UNK        -0.1963 
     64 N          34.0365  -46.9992  -51.6605 N.am      2 UNK        -0.4790 
     65 C          33.8728  -47.1374  -52.9863 C.2       1 UNK         0.5024 
     66 O          32.8242  -47.5195  -53.4968 O.2       1 UNK        -0.4888 
     67 H67        38.9108  -48.7365  -52.4943 H         1 UNK         0.0892 
     68 H68        38.6938  -47.0250  -52.1239 H         1 UNK         0.0892 
     69 H69        38.1911  -48.2505  -50.9573 H         1 UNK         0.0892 
     70 H70        36.9509  -46.1313  -53.2024 H         1 UNK         0.3107 
     71 H71        35.0867  -47.6244  -54.6632 H         1 UNK         0.0773 
     72 H72        35.9108  -45.1638  -55.0113 H         1 UNK         0.0680 
     73 H73        34.6545  -44.6957  -53.9005 H         1 UNK         0.0680 
     74 H74        34.2139  -43.1426  -55.7444 H         1 UNK         0.0650 
     75 H75        33.5359  -43.5191  -57.3038 H         1 UNK         0.0650 
     76 H76        32.3451  -44.1316  -53.7448 H         1 UNK         0.1397 
     77 H77        28.6081  -42.1441  -54.4385 H         1 UNK         0.1363 
     78 H78        31.5040  -42.3994  -57.5804 H         1 UNK         0.1355 
     79 H79        29.6660  -40.8242  -57.7394 H         1 UNK         0.0707 
     80 H80        28.5216  -40.6114  -56.4507 H         1 UNK         0.0707 
     81 H81        25.5538  -42.2516  -57.3480 H         1 UNK         0.1034 
     82 H82        26.5742  -41.7771  -56.0292 H         1 UNK         0.1034 
     83 H83        27.2601  -44.1593  -55.7006 H         1 UNK         0.0482 
     84 H84        24.5221  -45.8191  -55.5060 H         1 UNK         0.3460 
     85 H85        23.8350  -45.0592  -54.0911 H         1 UNK         0.3460 
     86 H86        26.8310  -45.7843  -57.0605 H         1 UNK         0.2989 
     87 H87        24.1089  -46.7411  -59.0617 H         1 UNK         0.0559 
     88 H88        25.8642  -47.1970  -60.8130 H         1 UNK         0.0848 
     89 H89        26.8672  -45.9259  -60.1128 H         1 UNK         0.0848 
     90 H90        25.3127  -45.5285  -60.8216 H         1 UNK         0.0848 
     91 H91        26.6635  -47.9360  -58.5045 H         1 UNK         0.3144 
     92 H92        26.3257  -48.8602  -55.3844 H         1 UNK         0.0727 
     93 H93        25.7712  -51.2999  -55.5217 H         1 UNK         0.0790 
     94 H94        24.8048  -50.9927  -56.9655 H         1 UNK         0.0790 
     95 H95        24.3387  -50.2898  -55.4279 H         1 UNK         0.0790 
     96 H96        28.1318  -49.1963  -56.5585 H         1 UNK         0.3215 
     97 H97        29.4885  -51.1643  -57.8599 H         1 UNK         0.0863 
     98 H98        30.2896  -50.9851  -60.2326 H         1 UNK         0.0808 
     99 H99        28.7441  -50.2750  -60.6988 H         1 UNK         0.0808 
    100 H100       28.8115  -51.9234  -60.0999 H         1 UNK         0.0808 
    101 H101       30.4043  -49.1865  -57.5013 H         1 UNK         0.3118 
    102 H102       31.3115  -46.8760  -58.6767 H         1 UNK         0.0546 
    103 H103       28.7156  -45.2604  -58.4995 H         1 UNK         0.0828 
    104 H104       29.7612  -45.3788  -59.9055 H         1 UNK         0.0828 
    105 H105       30.3419  -44.5888  -58.4508 H         1 UNK         0.0828 
    106 H106       31.3270  -46.7768  -56.4701 H         1 UNK         0.3005 
    107 H107       30.7903  -46.5453  -54.4123 H         1 UNK         0.1257 
    108 H108       28.5766  -45.0237  -54.1998 H         1 UNK         0.0775 
    109 H109       27.9758  -46.3557  -53.2798 H         1 UNK         0.0775 
    110 H110       29.0315  -43.0284  -52.2936 H         1 UNK         0.0840 
    111 H111       30.7084  -43.0677  -51.8155 H         1 UNK         0.0840 
    112 H112       29.2864  -48.2465  -52.9683 H         1 UNK         0.2987 
    113 H113       28.8432  -50.4437  -53.0191 H         1 UNK         0.0785 
    114 H114       29.3250  -52.7653  -53.7643 H         1 UNK         0.0798 
    115 H115       30.3933  -52.1595  -55.0281 H         1 UNK         0.0798 
    116 H116       28.6802  -51.7865  -55.0724 H         1 UNK         0.0798 
    117 H117       30.5742  -50.5058  -51.6304 H         1 UNK         0.3079 
    118 H118       32.4255  -51.4920  -50.6644 H         1 UNK         0.0794 
    119 H119       34.0263  -52.9733  -51.8751 H         1 UNK         0.0786 
    120 H120       34.8622  -51.9300  -50.7347 H         1 UNK         0.0786 
    121 H121       34.9109  -51.5701  -52.4587 H         1 UNK         0.0786 
    122 H122       34.2577  -49.3899  -51.5882 H         1 UNK         0.3032 
    123 H123       32.1512  -46.7073  -50.8448 H         1 UNK         0.1094 
    124 H124       32.8383  -47.1569  -48.4788 H         1 UNK         0.0794 
    125 H125       34.4747  -47.5183  -49.0111 H         1 UNK         0.0794 
    126 H126       33.8180  -45.8903  -49.1965 H         1 UNK         0.0794 
    127 H127       34.9365  -46.6879  -51.3251 H         1 UNK         0.3016 
@<TRIPOS>BOND
     1    1    2 1    
     2    1   67 1    
     3    1   68 1    
     4    1   69 1    
     5    2    3 2    
     6    2    4 am   BACKBONE|DICT|INTERRES
     7    4    5 1    
     8    4   70 1    
     9    5    6 1    
    10    5   65 1    
    11    5   71 1    
    12    6    7 1    
    13    6   72 1    
    14    6   73 1    
    15    7    8 1    
    16    8    9 1    
    17    8   74 1    
    18    8   75 1    
    19    9   10 ar   
    20    9   14 ar   
    21   10   11 ar   
    22   10   76 1    
    23   11   12 ar   
    24   11   48 1    
    25   12   13 ar   
    26   12   77 1    
    27   13   14 ar   
    28   13   15 1    
    29   14   78 1    
    30   15   16 1    
    31   15   79 1    
    32   15   80 1    
    33   16   17 1    
    34   17   18 1    
    35   17   81 1    
    36   17   82 1    
    37   18   19 1    
    38   18   22 1    
    39   18   83 1    
    40   19   20 am   BACKBONE|DICT|INTERRES
    41   19   21 2    
    42   20   84 1    
    43   20   85 1    
    44   22   23 am   BACKBONE|DICT|INTERRES
    45   22   86 1    
    46   23   24 2    
    47   23   25 1    
    48   25   26 1    
    49   25   27 1    
    50   25   87 1    
    51   26   88 1    
    52   26   89 1    
    53   26   90 1    
    54   27   28 am   BACKBONE|DICT|INTERRES
    55   27   91 1    
    56   28   29 2    
    57   28   30 1    
    58   30   31 1    
    59   30   32 1    
    60   30   92 1    
    61   31   93 1    
    62   31   94 1    
    63   31   95 1    
    64   32   33 am   BACKBONE|DICT|INTERRES
    65   32   96 1    
    66   33   34 2    
    67   33   35 1    
    68   35   36 1    
    69   35   37 1    
    70   35   97 1    
    71   36   98 1    
    72   36   99 1    
    73   36  100 1    
    74   37   38 am   BACKBONE|DICT|INTERRES
    75   37  101 1    
    76   38   39 2    
    77   38   40 1    
    78   40   41 1    
    79   40   42 1    
    80   40  102 1    
    81   41  103 1    
    82   41  104 1    
    83   41  105 1    
    84   42   43 am   BACKBONE|DICT|INTERRES
    85   42  106 1    
    86   43   44 2    
    87   43   45 1    
    88   45   46 1    
    89   45   49 1    
    90   45  107 1    
    91   46   47 1    
    92   46  108 1    
    93   46  109 1    
    94   47   48 1    
    95   48  110 1    
    96   48  111 1    
    97   49   50 am   BACKBONE|DICT|INTERRES
    98   49  112 1    
    99   50   51 2    
   100   50   52 1    
   101   52   53 1    
   102   52   54 1    
   103   52  113 1    
   104   53  114 1    
   105   53  115 1    
   106   53  116 1    
   107   54   55 am   BACKBONE|DICT|INTERRES
   108   54  117 1    
   109   55   56 2    
   110   55   57 1    
   111   57   58 1    
   112   57   59 1    
   113   57  118 1    
   114   58  119 1    
   115   58  120 1    
   116   58  121 1    
   117   59   60 am   BACKBONE|DICT|INTERRES
   118   59  122 1    
   119   60   61 2    
   120   60   62 1    
   121   62   63 1    
   122   62   64 1    
   123   62  123 1    
   124   63  124 1    
   125   63  125 1    
   126   63  126 1    
   127   64   65 am   BACKBONE|DICT|INTERRES
   128   64  127 1    
   129   65   66 2    
@<TRIPOS>SUBSTRUCTURE
     1 UNK         1 GROUP             0       ****    0 ROOT    
