@<TRIPOS>MOLECULE
3R134
127   129    1
SMALL
USER_CHARGES


@<TRIPOS>ATOM
      1 CA         37.9491  -44.0592  -51.1412 C.3       0 UNK        -0.1968 
      2 C          36.5676  -44.6545  -51.3699 C.2       0 UNK         0.4852 
      3 O          36.1301  -45.4938  -50.5807 O.2       0 UNK        -0.5359 
      4 N          35.8911  -44.2351  -52.4496 N.am      1 UNK        -0.4300 
      5 CA         34.5392  -44.6215  -52.8910 C.3       1 UNK         0.0863 
      6 C6         33.4211  -44.3556  -51.8480 C.3       11 UNK        -0.0953 
      7 S7         33.3407  -42.6342  -51.2417 S.3       11 UNK        -0.2369 
      8 C8         32.8910  -41.6777  -52.7327 C.3       11 UNK         0.0226 
      9 C9         31.7308  -42.2683  -53.5280 C.ar      11 UNK        -0.0699 
     10 C10        30.5443  -42.6517  -52.8921 C.ar      11 UNK        -0.0804 
     11 C11        29.5053  -43.2370  -53.6214 C.ar      11 UNK        -0.0871 
     12 C12        29.6305  -43.3744  -55.0050 C.ar      11 UNK        -0.1008 
     13 C13        30.8036  -42.9840  -55.6558 C.ar      11 UNK        -0.0735 
     14 C14        31.8525  -42.4365  -54.9119 C.ar      11 UNK        -0.0945 
     15 C15        30.9244  -43.1546  -57.1623 C.3       11 UNK         0.0169 
     16 S16        30.7231  -44.8991  -57.6431 S.3       11 UNK        -0.2669 
     17 C17        29.9015  -44.7338  -59.2636 C.3       11 UNK        -0.0850 
     18 CA         28.3924  -44.3711  -59.1693 C.3       10 UNK         0.0855 
     19 C          27.7593  -44.2775  -60.5904 C.2       10 UNK         0.5543 
     20 N          26.7516  -45.0710  -60.9366 N.am      10 UNK        -0.7343 
     21 O          28.1944  -43.4600  -61.3974 O.2       10 UNK        -0.5027 
     22 N          27.6697  -45.2412  -58.2292 N.am      10 UNK        -0.4495 
     23 C          26.4759  -44.9670  -57.6860 C.2       10 UNK         0.4903 
     24 O          25.8906  -43.8921  -57.8237 O.2       10 UNK        -0.4860 
     25 CA         25.8280  -46.1009  -56.8656 C.3       9 UNK         0.0227 
     26 CB         24.2998  -45.9466  -56.7199 C.3       9 UNK        -0.1964 
     27 N          26.1787  -47.4342  -57.3746 N.am      9 UNK        -0.4231 
     28 C          25.9436  -47.9169  -58.6049 C.2       9 UNK         0.5014 
     29 O          25.2949  -47.3165  -59.4630 O.2       9 UNK        -0.5270 
     30 CA         26.5922  -49.2574  -58.9790 C.3       8 UNK         0.0284 
     31 CB         27.8363  -49.0084  -59.8513 C.3       8 UNK        -0.1977 
     32 N          26.9902  -50.0501  -57.8104 N.am      8 UNK        -0.4342 
     33 C          26.5134  -51.2683  -57.5253 C.2       8 UNK         0.5039 
     34 O          25.6291  -51.8304  -58.1736 O.2       8 UNK        -0.5547 
     35 CA         27.1442  -52.0105  -56.3368 C.3       7 UNK         0.0281 
     36 CB         28.4531  -52.6963  -56.7620 C.3       7 UNK        -0.1963 
     37 N          27.3948  -51.1686  -55.1661 N.am      7 UNK        -0.4444 
     38 C          26.4396  -50.7170  -54.3414 C.2       7 UNK         0.5104 
     39 O          25.2333  -50.8549  -54.5449 O.2       7 UNK        -0.5100 
     40 CA         26.9114  -50.0225  -53.0549 C.3       6 UNK         0.0396 
     41 CB         27.3979  -51.0585  -52.0279 C.3       6 UNK        -0.1801 
     42 N          27.9835  -49.0663  -53.3253 N.am      6 UNK        -0.4747 
     43 C          27.7826  -47.7700  -53.6003 C.2       6 UNK         0.5012 
     44 O          26.6706  -47.2421  -53.6056 O.2       6 UNK        -0.5003 
     45 CA         29.0229  -46.9254  -53.9721 C.3       5 UNK         0.0782 
     46 C46        29.6807  -46.2607  -52.7369 C.3       11 UNK        -0.0868 
     47 S47        28.6250  -45.1246  -51.7629 S.3       11 UNK        -0.2515 
     48 C48        28.2609  -43.7568  -52.9171 C.3       11 UNK         0.0199 
     49 N          30.0211  -47.6962  -54.7215 N.am      5 UNK        -0.4607 
     50 C          29.8179  -48.2734  -55.9136 C.2       4 UNK         0.5031 
     51 O          28.7673  -48.1806  -56.5467 O.2       4 UNK        -0.5119 
     52 CA         30.9405  -49.1664  -56.4696 C.3       4 UNK         0.0263 
     53 CB         31.8627  -48.3594  -57.3942 C.3       4 UNK        -0.1967 
     54 N          31.7439  -49.8261  -55.4363 N.am      4 UNK        -0.4237 
     55 C          31.2726  -50.6365  -54.4763 C.2       3 UNK         0.4908 
     56 O          30.0857  -50.9460  -54.3691 O.2       3 UNK        -0.5102 
     57 CA         32.2765  -51.1691  -53.4391 C.3       3 UNK         0.0241 
     58 CB         32.6347  -52.6312  -53.7492 C.3       3 UNK        -0.1971 
     59 N          33.5088  -50.3790  -53.3309 N.am      3 UNK        -0.4139 
     60 C          33.5775  -49.1063  -52.9135 C.2       2 UNK         0.5016 
     61 O          32.5889  -48.4563  -52.5617 O.2       2 UNK        -0.5319 
     62 CA         34.9878  -48.4789  -52.8774 C.3       2 UNK         0.0286 
     63 CB         35.8240  -48.8130  -54.1343 C.3       2 UNK        -0.1963 
     64 N          34.9722  -47.0294  -52.6458 N.am      2 UNK        -0.4790 
     65 C          34.4515  -46.0688  -53.4225 C.2       1 UNK         0.5024 
     66 O          33.9310  -46.2761  -54.5197 O.2       1 UNK        -0.4888 
     67 H67        38.2149  -43.3338  -51.9099 H         1 UNK         0.0892 
     68 H68        38.7019  -44.8470  -51.1431 H         1 UNK         0.0892 
     69 H69        37.9840  -43.5564  -50.1750 H         1 UNK         0.0892 
     70 H70        36.3443  -43.5674  -53.0577 H         1 UNK         0.3107 
     71 H71        34.3328  -43.9846  -53.7522 H         1 UNK         0.0773 
     72 H72        32.4479  -44.6186  -52.2614 H         1 UNK         0.0680 
     73 H73        33.5470  -45.0025  -50.9786 H         1 UNK         0.0680 
     74 H74        32.6268  -40.6641  -52.4291 H         1 UNK         0.0650 
     75 H75        33.7795  -41.5861  -53.3591 H         1 UNK         0.0650 
     76 H76        30.4472  -42.5386  -51.8209 H         1 UNK         0.1397 
     77 H77        28.8262  -43.8103  -55.5819 H         1 UNK         0.1363 
     78 H78        32.7642  -42.1397  -55.4120 H         1 UNK         0.1355 
     79 H79        31.8892  -42.7977  -57.5257 H         1 UNK         0.0707 
     80 H80        30.1656  -42.5345  -57.6395 H         1 UNK         0.0707 
     81 H81        30.0269  -45.6801  -59.7933 H         1 UNK         0.1034 
     82 H82        30.4406  -43.9882  -59.8517 H         1 UNK         0.1034 
     83 H83        28.3272  -43.3601  -58.7646 H         1 UNK         0.0482 
     84 H84        26.3596  -44.9866  -61.8608 H         1 UNK         0.3460 
     85 H85        26.3578  -45.7406  -60.2862 H         1 UNK         0.3460 
     86 H86        28.0940  -46.1377  -58.0384 H         1 UNK         0.2989 
     87 H87        26.2629  -46.0276  -55.8698 H         1 UNK         0.0559 
     88 H88        23.7976  -45.9434  -57.6877 H         1 UNK         0.0848 
     89 H89        24.0471  -45.0109  -56.2199 H         1 UNK         0.0848 
     90 H90        23.8765  -46.7549  -56.1236 H         1 UNK         0.0848 
     91 H91        26.8216  -47.9564  -56.7901 H         1 UNK         0.3144 
     92 H92        25.8611  -49.7995  -59.5823 H         1 UNK         0.0727 
     93 H93        28.2730  -49.9471  -60.1923 H         1 UNK         0.0790 
     94 H94        28.6079  -48.4577  -59.3118 H         1 UNK         0.0790 
     95 H95        27.5833  -48.4286  -60.7403 H         1 UNK         0.0790 
     96 H96        27.7129  -49.6489  -57.2202 H         1 UNK         0.3215 
     97 H97        26.4441  -52.7936  -56.0364 H         1 UNK         0.0863 
     98 H98        28.8670  -53.2973  -55.9519 H         1 UNK         0.0808 
     99 H99        29.2120  -51.9737  -57.0613 H         1 UNK         0.0808 
    100 H100       28.2870  -53.3642  -57.6085 H         1 UNK         0.0808 
    101 H101       28.3690  -51.0404  -54.8956 H         1 UNK         0.3118 
    102 H102       26.0547  -49.5041  -52.6184 H         1 UNK         0.0546 
    103 H103       26.6129  -51.7815  -51.8026 H         1 UNK         0.0828 
    104 H104       27.6772  -50.5817  -51.0883 H         1 UNK         0.0828 
    105 H105       28.2621  -51.6180  -52.3881 H         1 UNK         0.0828 
    106 H106       28.9189  -49.4458  -53.4106 H         1 UNK         0.3005 
    107 H107       28.6745  -46.1370  -54.6410 H         1 UNK         0.1257 
    108 H108       30.5660  -45.7089  -53.0536 H         1 UNK         0.0775 
    109 H109       30.0512  -47.0291  -52.0555 H         1 UNK         0.0775 
    110 H110       27.5166  -44.0968  -53.6391 H         1 UNK         0.0840 
    111 H111       27.7951  -42.9408  -52.3629 H         1 UNK         0.0840 
    112 H112       30.9131  -47.8370  -54.2646 H         1 UNK         0.2987 
    113 H113       30.4670  -49.9492  -57.0640 H         1 UNK         0.0785 
    114 H114       31.2937  -47.8920  -58.1991 H         1 UNK         0.0798 
    115 H115       32.6161  -48.9944  -57.8605 H         1 UNK         0.0798 
    116 H116       32.3788  -47.5635  -56.8544 H         1 UNK         0.0798 
    117 H117       32.7322  -49.6220  -55.4368 H         1 UNK         0.3079 
    118 H118       31.7772  -51.1378  -52.4683 H         1 UNK         0.0794 
    119 H119       33.1586  -52.7265  -54.7012 H         1 UNK         0.0786 
    120 H120       31.7371  -53.2489  -53.8086 H         1 UNK         0.0786 
    121 H121       33.2675  -53.0593  -52.9715 H         1 UNK         0.0786 
    122 H122       34.3655  -50.8476  -53.5887 H         1 UNK         0.3032 
    123 H123       35.4913  -48.9132  -52.0120 H         1 UNK         0.1094 
    124 H124       36.7831  -48.2951  -54.1172 H         1 UNK         0.0794 
    125 H125       36.0460  -49.8784  -54.2001 H         1 UNK         0.0794 
    126 H126       35.3110  -48.5273  -55.0534 H         1 UNK         0.0794 
    127 H127       35.3630  -46.7161  -51.7588 H         1 UNK         0.3016 
@<TRIPOS>BOND
     1    1    2 1    
     2    1   67 1    
     3    1   68 1    
     4    1   69 1    
     5    2    3 2    
     6    2    4 am   BACKBONE|DICT|INTERRES
     7    4    5 1    
     8    4   70 1    
     9    5    6 1    
    10    5   65 1    
    11    5   71 1    
    12    6    7 1    
    13    6   72 1    
    14    6   73 1    
    15    7    8 1    
    16    8    9 1    
    17    8   74 1    
    18    8   75 1    
    19    9   10 ar   
    20    9   14 ar   
    21   10   11 ar   
    22   10   76 1    
    23   11   12 ar   
    24   11   48 1    
    25   12   13 ar   
    26   12   77 1    
    27   13   14 ar   
    28   13   15 1    
    29   14   78 1    
    30   15   16 1    
    31   15   79 1    
    32   15   80 1    
    33   16   17 1    
    34   17   18 1    
    35   17   81 1    
    36   17   82 1    
    37   18   19 1    
    38   18   22 1    
    39   18   83 1    
    40   19   20 am   BACKBONE|DICT|INTERRES
    41   19   21 2    
    42   20   84 1    
    43   20   85 1    
    44   22   23 am   BACKBONE|DICT|INTERRES
    45   22   86 1    
    46   23   24 2    
    47   23   25 1    
    48   25   26 1    
    49   25   27 1    
    50   25   87 1    
    51   26   88 1    
    52   26   89 1    
    53   26   90 1    
    54   27   28 am   BACKBONE|DICT|INTERRES
    55   27   91 1    
    56   28   29 2    
    57   28   30 1    
    58   30   31 1    
    59   30   32 1    
    60   30   92 1    
    61   31   93 1    
    62   31   94 1    
    63   31   95 1    
    64   32   33 am   BACKBONE|DICT|INTERRES
    65   32   96 1    
    66   33   34 2    
    67   33   35 1    
    68   35   36 1    
    69   35   37 1    
    70   35   97 1    
    71   36   98 1    
    72   36   99 1    
    73   36  100 1    
    74   37   38 am   BACKBONE|DICT|INTERRES
    75   37  101 1    
    76   38   39 2    
    77   38   40 1    
    78   40   41 1    
    79   40   42 1    
    80   40  102 1    
    81   41  103 1    
    82   41  104 1    
    83   41  105 1    
    84   42   43 am   BACKBONE|DICT|INTERRES
    85   42  106 1    
    86   43   44 2    
    87   43   45 1    
    88   45   46 1    
    89   45   49 1    
    90   45  107 1    
    91   46   47 1    
    92   46  108 1    
    93   46  109 1    
    94   47   48 1    
    95   48  110 1    
    96   48  111 1    
    97   49   50 am   BACKBONE|DICT|INTERRES
    98   49  112 1    
    99   50   51 2    
   100   50   52 1    
   101   52   53 1    
   102   52   54 1    
   103   52  113 1    
   104   53  114 1    
   105   53  115 1    
   106   53  116 1    
   107   54   55 am   BACKBONE|DICT|INTERRES
   108   54  117 1    
   109   55   56 2    
   110   55   57 1    
   111   57   58 1    
   112   57   59 1    
   113   57  118 1    
   114   58  119 1    
   115   58  120 1    
   116   58  121 1    
   117   59   60 am   BACKBONE|DICT|INTERRES
   118   59  122 1    
   119   60   61 2    
   120   60   62 1    
   121   62   63 1    
   122   62   64 1    
   123   62  123 1    
   124   63  124 1    
   125   63  125 1    
   126   63  126 1    
   127   64   65 am   BACKBONE|DICT|INTERRES
   128   64  127 1    
   129   65   66 2    
@<TRIPOS>SUBSTRUCTURE
     1 UNK         1 GROUP             0       ****    0 ROOT    
