@<TRIPOS>MOLECULE
3R134
127   129    1
SMALL
USER_CHARGES


@<TRIPOS>ATOM
      1 CA         32.9422  -46.7149  -56.4782 C.3       0 UNK        -0.1968 
      2 C          33.9323  -46.3598  -55.3798 C.2       0 UNK         0.4852 
      3 O          35.1077  -46.1294  -55.6657 O.2       0 UNK        -0.5359 
      4 N          33.4700  -46.3556  -54.1229 N.am      1 UNK        -0.4300 
      5 CA         34.1942  -46.1120  -52.8673 C.3       1 UNK         0.0863 
      6 C6         34.8818  -44.7236  -52.7755 C.3       11 UNK        -0.0953 
      7 S7         33.7433  -43.4379  -52.1645 S.3       11 UNK        -0.2369 
      8 C8         33.0689  -42.7190  -53.6977 C.3       11 UNK         0.0226 
      9 C9         31.6869  -43.2555  -54.0604 C.ar      11 UNK        -0.0699 
     10 C10        30.6484  -43.2501  -53.1207 C.ar      11 UNK        -0.0804 
     11 C11        29.3593  -43.6600  -53.4767 C.ar      11 UNK        -0.0871 
     12 C12        29.1102  -44.0751  -54.7871 C.ar      11 UNK        -0.1008 
     13 C13        30.1364  -44.0862  -55.7354 C.ar      11 UNK        -0.0735 
     14 C14        31.4223  -43.6804  -55.3662 C.ar      11 UNK        -0.0945 
     15 C15        29.8365  -44.4853  -57.1701 C.3       11 UNK         0.0169 
     16 S16        29.4053  -43.0151  -58.1469 S.3       11 UNK        -0.2669 
     17 C17        28.5072  -43.7519  -59.5520 C.3       11 UNK        -0.0850 
     18 CA         26.9700  -43.6741  -59.3463 C.3       10 UNK         0.0855 
     19 C          26.1883  -43.9061  -60.6733 C.2       10 UNK         0.5543 
     20 N          25.1397  -44.7201  -60.7087 N.am      10 UNK        -0.7343 
     21 O          26.5243  -43.3139  -61.6962 O.2       10 UNK        -0.5027 
     22 N          26.5412  -44.5669  -58.2596 N.am      10 UNK        -0.4495 
     23 C          25.6931  -44.2509  -57.2723 C.2       10 UNK         0.4903 
     24 O          25.2320  -43.1212  -57.1024 O.2       10 UNK        -0.4860 
     25 CA         25.2831  -45.3955  -56.3148 C.3       9 UNK         0.0227 
     26 CB         23.9256  -45.1417  -55.6273 C.3       9 UNK        -0.1964 
     27 N          25.3056  -46.7258  -56.9398 N.am      9 UNK        -0.4231 
     28 C          24.6549  -47.0969  -58.0554 C.2       9 UNK         0.5014 
     29 O          23.8452  -46.3731  -58.6383 O.2       9 UNK        -0.5270 
     30 CA         25.0028  -48.4734  -58.6609 C.3       8 UNK         0.0284 
     31 CB         24.7590  -48.5143  -60.1845 C.3       8 UNK        -0.1977 
     32 N          26.3618  -48.9489  -58.3700 N.am      8 UNK        -0.4342 
     33 C          27.5331  -48.3261  -58.5686 C.2       8 UNK         0.5039 
     34 O          27.6322  -47.1687  -58.9810 O.2       8 UNK        -0.5547 
     35 CA         28.8001  -49.1279  -58.1942 C.3       7 UNK         0.0281 
     36 CB         30.0949  -48.3282  -58.4308 C.3       7 UNK        -0.1963 
     37 N          28.7732  -49.5789  -56.7991 N.am      7 UNK        -0.4444 
     38 C          27.9900  -50.5437  -56.2969 C.2       7 UNK         0.5104 
     39 O          27.2669  -51.2584  -56.9927 O.2       7 UNK        -0.5100 
     40 CA         27.9562  -50.7119  -54.7672 C.3       6 UNK         0.0396 
     41 CB         28.7503  -51.9611  -54.3575 C.3       6 UNK        -0.1801 
     42 N          28.4413  -49.5539  -54.0047 N.am      6 UNK        -0.4747 
     43 C          27.9240  -48.3129  -54.0248 C.2       6 UNK         0.5012 
     44 O          26.9871  -47.9882  -54.7572 O.2       6 UNK        -0.5003 
     45 CA         28.5578  -47.2545  -53.0910 C.3       5 UNK         0.0782 
     46 C46        27.4856  -46.3474  -52.4353 C.3       11 UNK        -0.0868 
     47 S47        28.2115  -45.0575  -51.3641 S.3       11 UNK        -0.2515 
     48 C48        28.2279  -43.6028  -52.4590 C.3       11 UNK         0.0199 
     49 N          29.4617  -47.8485  -52.0960 N.am      5 UNK        -0.4607 
     50 C          30.7529  -48.1129  -52.3155 C.2       4 UNK         0.5031 
     51 O          31.2985  -47.9060  -53.4009 O.2       4 UNK        -0.5119 
     52 CA         31.5762  -48.6948  -51.1465 C.3       4 UNK         0.0263 
     53 CB         30.7214  -49.3873  -50.0603 C.3       4 UNK        -0.1967 
     54 N          32.6416  -49.5860  -51.6241 N.am      4 UNK        -0.4237 
     55 C          32.4843  -50.7164  -52.3332 C.2       3 UNK         0.4908 
     56 O          31.3869  -51.2144  -52.5862 O.2       3 UNK        -0.5102 
     57 CA         33.7648  -51.3767  -52.8760 C.3       3 UNK         0.0241 
     58 CB         33.4913  -52.3227  -54.0613 C.3       3 UNK        -0.1971 
     59 N          34.7150  -50.3445  -53.2898 N.am      3 UNK        -0.4139 
     60 C          36.0029  -50.2732  -52.9320 C.2       2 UNK         0.5016 
     61 O          36.5913  -51.1467  -52.2938 O.2       2 UNK        -0.5319 
     62 CA         36.7567  -48.9867  -53.3255 C.3       2 UNK         0.0286 
     63 CB         37.5332  -49.1973  -54.6350 C.3       2 UNK        -0.1963 
     64 N          35.8889  -47.8093  -53.4658 N.am      2 UNK        -0.4790 
     65 C          35.1428  -47.2686  -52.4923 C.2       1 UNK         0.5024 
     66 O          35.1292  -47.6984  -51.3382 O.2       1 UNK        -0.4888 
     67 H67        32.9596  -45.9555  -57.2590 H         1 UNK         0.0892 
     68 H68        31.9245  -46.7883  -56.0946 H         1 UNK         0.0892 
     69 H69        33.2068  -47.6717  -56.9273 H         1 UNK         0.0892 
     70 H70        32.5156  -46.6803  -53.9738 H         1 UNK         0.3107 
     71 H71        33.4178  -46.1445  -52.1011 H         1 UNK         0.0773 
     72 H72        35.7077  -44.7457  -52.0616 H         1 UNK         0.0680 
     73 H73        35.3296  -44.4192  -53.7215 H         1 UNK         0.0680 
     74 H74        33.7745  -42.8666  -54.5164 H         1 UNK         0.0650 
     75 H75        32.9866  -41.6402  -53.5601 H         1 UNK         0.0650 
     76 H76        30.8392  -42.9060  -52.1134 H         1 UNK         0.1397 
     77 H77        28.1116  -44.3679  -55.0774 H         1 UNK         0.1363 
     78 H78        32.2085  -43.6617  -56.1084 H         1 UNK         0.1355 
     79 H79        29.0187  -45.2068  -57.1917 H         1 UNK         0.0707 
     80 H80        30.6976  -44.9774  -57.6228 H         1 UNK         0.0707 
     81 H81        28.8101  -43.1979  -60.4424 H         1 UNK         0.1034 
     82 H82        28.8299  -44.7821  -59.7151 H         1 UNK         0.1034 
     83 H83        26.7345  -42.6443  -59.0721 H         1 UNK         0.0482 
     84 H84        24.8140  -45.1999  -59.8760 H         1 UNK         0.3460 
     85 H85        24.6470  -44.8427  -61.5784 H         1 UNK         0.3460 
     86 H86        26.8469  -45.5322  -58.3622 H         1 UNK         0.2989 
     87 H87        26.0438  -45.4210  -55.5348 H         1 UNK         0.0559 
     88 H88        23.9458  -44.2193  -55.0456 H         1 UNK         0.0848 
     89 H89        23.6726  -45.9493  -54.9404 H         1 UNK         0.0848 
     90 H90        23.1164  -45.0513  -56.3526 H         1 UNK         0.0848 
     91 H91        25.9431  -47.3885  -56.5098 H         1 UNK         0.3144 
     92 H92        24.3224  -49.1869  -58.1942 H         1 UNK         0.0727 
     93 H93        23.7201  -48.2868  -60.4266 H         1 UNK         0.0790 
     94 H94        24.9743  -49.5009  -60.5945 H         1 UNK         0.0790 
     95 H95        25.3835  -47.7901  -60.7092 H         1 UNK         0.0790 
     96 H96        26.4227  -49.8844  -57.9725 H         1 UNK         0.3215 
     97 H97        28.8263  -50.0064  -58.8426 H         1 UNK         0.0863 
     98 H98        30.1366  -47.4378  -57.8041 H         1 UNK         0.0808 
     99 H99        30.1679  -47.9997  -59.4685 H         1 UNK         0.0808 
    100 H100       30.9789  -48.9302  -58.2203 H         1 UNK         0.0808 
    101 H101       29.3123  -49.0372  -56.1400 H         1 UNK         0.3118 
    102 H102       26.9126  -50.8658  -54.4858 H         1 UNK         0.0546 
    103 H103       29.8008  -51.8794  -54.6392 H         1 UNK         0.0828 
    104 H104       28.3533  -52.8538  -54.8428 H         1 UNK         0.0828 
    105 H105       28.7035  -52.1311  -53.2817 H         1 UNK         0.0828 
    106 H106       29.2295  -49.7242  -53.3940 H         1 UNK         0.3005 
    107 H107       29.1523  -46.6178  -53.7486 H         1 UNK         0.1257 
    108 H108       26.8068  -46.9458  -51.8250 H         1 UNK         0.0775 
    109 H109       26.8629  -45.8677  -53.1922 H         1 UNK         0.0775 
    110 H110       27.2617  -43.5000  -52.9558 H         1 UNK         0.0840 
    111 H111       28.3424  -42.7083  -51.8448 H         1 UNK         0.0840 
    112 H112       29.0659  -48.0369  -51.1866 H         1 UNK         0.2987 
    113 H113       32.0790  -47.8464  -50.6802 H         1 UNK         0.0785 
    114 H114       30.0688  -48.6762  -49.5526 H         1 UNK         0.0798 
    115 H115       31.3525  -49.8358  -49.2929 H         1 UNK         0.0798 
    116 H116       30.0940  -50.1782  -50.4734 H         1 UNK         0.0798 
    117 H117       33.5849  -49.2503  -51.4685 H         1 UNK         0.3079 
    118 H118       34.1796  -51.9641  -52.0541 H         1 UNK         0.0794 
    119 H119       32.8226  -53.1340  -53.7706 H         1 UNK         0.0786 
    120 H120       34.4126  -52.7788  -54.4239 H         1 UNK         0.0786 
    121 H121       33.0256  -51.7970  -54.8959 H         1 UNK         0.0786 
    122 H122       34.3281  -49.5724  -53.8147 H         1 UNK         0.3032 
    123 H123       37.4731  -48.7774  -52.5280 H         1 UNK         0.1094 
    124 H124       38.2061  -50.0526  -54.5575 H         1 UNK         0.0794 
    125 H125       36.8637  -49.3832  -55.4760 H         1 UNK         0.0794 
    126 H126       38.1440  -48.3276  -54.8783 H         1 UNK         0.0794 
    127 H127       35.8362  -47.3704  -54.3824 H         1 UNK         0.3016 
@<TRIPOS>BOND
     1    1    2 1    
     2    1   67 1    
     3    1   68 1    
     4    1   69 1    
     5    2    3 2    
     6    2    4 am   BACKBONE|DICT|INTERRES
     7    4    5 1    
     8    4   70 1    
     9    5    6 1    
    10    5   65 1    
    11    5   71 1    
    12    6    7 1    
    13    6   72 1    
    14    6   73 1    
    15    7    8 1    
    16    8    9 1    
    17    8   74 1    
    18    8   75 1    
    19    9   10 ar   
    20    9   14 ar   
    21   10   11 ar   
    22   10   76 1    
    23   11   12 ar   
    24   11   48 1    
    25   12   13 ar   
    26   12   77 1    
    27   13   14 ar   
    28   13   15 1    
    29   14   78 1    
    30   15   16 1    
    31   15   79 1    
    32   15   80 1    
    33   16   17 1    
    34   17   18 1    
    35   17   81 1    
    36   17   82 1    
    37   18   19 1    
    38   18   22 1    
    39   18   83 1    
    40   19   20 am   BACKBONE|DICT|INTERRES
    41   19   21 2    
    42   20   84 1    
    43   20   85 1    
    44   22   23 am   BACKBONE|DICT|INTERRES
    45   22   86 1    
    46   23   24 2    
    47   23   25 1    
    48   25   26 1    
    49   25   27 1    
    50   25   87 1    
    51   26   88 1    
    52   26   89 1    
    53   26   90 1    
    54   27   28 am   BACKBONE|DICT|INTERRES
    55   27   91 1    
    56   28   29 2    
    57   28   30 1    
    58   30   31 1    
    59   30   32 1    
    60   30   92 1    
    61   31   93 1    
    62   31   94 1    
    63   31   95 1    
    64   32   33 am   BACKBONE|DICT|INTERRES
    65   32   96 1    
    66   33   34 2    
    67   33   35 1    
    68   35   36 1    
    69   35   37 1    
    70   35   97 1    
    71   36   98 1    
    72   36   99 1    
    73   36  100 1    
    74   37   38 am   BACKBONE|DICT|INTERRES
    75   37  101 1    
    76   38   39 2    
    77   38   40 1    
    78   40   41 1    
    79   40   42 1    
    80   40  102 1    
    81   41  103 1    
    82   41  104 1    
    83   41  105 1    
    84   42   43 am   BACKBONE|DICT|INTERRES
    85   42  106 1    
    86   43   44 2    
    87   43   45 1    
    88   45   46 1    
    89   45   49 1    
    90   45  107 1    
    91   46   47 1    
    92   46  108 1    
    93   46  109 1    
    94   47   48 1    
    95   48  110 1    
    96   48  111 1    
    97   49   50 am   BACKBONE|DICT|INTERRES
    98   49  112 1    
    99   50   51 2    
   100   50   52 1    
   101   52   53 1    
   102   52   54 1    
   103   52  113 1    
   104   53  114 1    
   105   53  115 1    
   106   53  116 1    
   107   54   55 am   BACKBONE|DICT|INTERRES
   108   54  117 1    
   109   55   56 2    
   110   55   57 1    
   111   57   58 1    
   112   57   59 1    
   113   57  118 1    
   114   58  119 1    
   115   58  120 1    
   116   58  121 1    
   117   59   60 am   BACKBONE|DICT|INTERRES
   118   59  122 1    
   119   60   61 2    
   120   60   62 1    
   121   62   63 1    
   122   62   64 1    
   123   62  123 1    
   124   63  124 1    
   125   63  125 1    
   126   63  126 1    
   127   64   65 am   BACKBONE|DICT|INTERRES
   128   64  127 1    
   129   65   66 2    
@<TRIPOS>SUBSTRUCTURE
     1 UNK         1 GROUP             0       ****    0 ROOT    
