@<TRIPOS>MOLECULE
3R134
127   129    1
SMALL
USER_CHARGES


@<TRIPOS>ATOM
      1 CA         30.4480  -45.8980  -49.9747 C.3       0 UNK        -0.1968 
      2 C          31.5591  -45.7570  -51.0040 C.2       0 UNK         0.4852 
      3 O          31.3621  -46.1301  -52.1579 O.2       0 UNK        -0.5359 
      4 N          32.7233  -45.2381  -50.5877 N.am      1 UNK        -0.4300 
      5 CA         33.9439  -44.9816  -51.3726 C.3       1 UNK         0.0863 
      6 C6         33.7450  -44.0426  -52.5932 C.3       11 UNK        -0.0953 
      7 S7         33.1282  -42.3913  -52.1174 S.3       11 UNK        -0.2369 
      8 C8         33.0475  -41.5472  -53.7322 C.3       11 UNK         0.0226 
      9 C9         32.0121  -42.1881  -54.6433 C.ar      11 UNK        -0.0699 
     10 C10        32.4117  -43.0806  -55.6417 C.ar      11 UNK        -0.0804 
     11 C11        31.4599  -43.7604  -56.4062 C.ar      11 UNK        -0.0871 
     12 C12        30.1007  -43.5132  -56.1912 C.ar      11 UNK        -0.1008 
     13 C13        29.6898  -42.5908  -55.2230 C.ar      11 UNK        -0.0735 
     14 C14        30.6514  -41.9294  -54.4535 C.ar      11 UNK        -0.0945 
     15 C15        28.2090  -42.3658  -54.9515 C.3       11 UNK         0.0169 
     16 S16        27.4953  -40.9748  -55.8970 S.3       11 UNK        -0.2669 
     17 C17        27.6955  -41.4538  -57.6523 C.3       11 UNK        -0.0850 
     18 CA         26.5404  -42.3303  -58.2076 C.3       10 UNK         0.0855 
     19 C          26.7097  -42.5270  -59.7398 C.2       10 UNK         0.5543 
     20 N          25.9602  -41.7897  -60.5476 N.am      10 UNK        -0.7343 
     21 O          27.5491  -43.2998  -60.1966 O.2       10 UNK        -0.5027 
     22 N          26.4507  -43.5944  -57.4660 N.am      10 UNK        -0.4495 
     23 C          25.5995  -44.6037  -57.6725 C.2       10 UNK         0.4903 
     24 O          24.7203  -44.6203  -58.5361 O.2       10 UNK        -0.4860 
     25 CA         25.7377  -45.7878  -56.7016 C.3       9 UNK         0.0227 
     26 CB         24.4783  -45.9414  -55.8334 C.3       9 UNK        -0.1964 
     27 N          26.0024  -47.0442  -57.3984 N.am      9 UNK        -0.4231 
     28 C          27.1091  -47.3246  -58.0972 C.2       9 UNK         0.5014 
     29 O          28.0501  -46.5419  -58.2471 O.2       9 UNK        -0.5270 
     30 CA         27.1838  -48.7448  -58.6843 C.3       8 UNK         0.0284 
     31 CB         28.3751  -48.9258  -59.6441 C.3       8 UNK        -0.1977 
     32 N          27.2821  -49.7394  -57.6150 N.am      8 UNK        -0.4342 
     33 C          26.2597  -50.2138  -56.8913 C.2       8 UNK         0.5039 
     34 O          25.0896  -49.8658  -57.0592 O.2       8 UNK        -0.5547 
     35 CA         26.6046  -51.2189  -55.7822 C.3       7 UNK         0.0281 
     36 CB         27.1360  -52.5393  -56.3665 C.3       7 UNK        -0.1963 
     37 N          27.5936  -50.6493  -54.8673 N.am      7 UNK        -0.4444 
     38 C          27.2958  -49.9746  -53.7473 C.2       7 UNK         0.5104 
     39 O          26.1538  -49.8551  -53.3019 O.2       7 UNK        -0.5100 
     40 CA         28.4637  -49.3026  -52.9967 C.3       6 UNK         0.0396 
     41 CB         28.9825  -50.2077  -51.8691 C.3       6 UNK        -0.1801 
     42 N          29.5773  -48.9325  -53.8726 N.am      6 UNK        -0.4747 
     43 C          29.5007  -48.0210  -54.8522 C.2       6 UNK         0.5012 
     44 O          28.5042  -47.3280  -55.0512 O.2       6 UNK        -0.5003 
     45 CA         30.7138  -47.8825  -55.7940 C.3       5 UNK         0.0782 
     46 C46        31.6260  -46.7273  -55.3331 C.3       11 UNK        -0.0868 
     47 S47        32.7937  -46.2006  -56.6319 S.3       11 UNK        -0.2515 
     48 C48        31.8944  -44.8165  -57.4147 C.3       11 UNK         0.0199 
     49 N          31.4714  -49.1306  -55.9442 N.am      5 UNK        -0.4607 
     50 C          31.0162  -50.2573  -56.5050 C.2       4 UNK         0.5031 
     51 O          29.8795  -50.3882  -56.9537 O.2       4 UNK        -0.5119 
     52 CA         31.9816  -51.4518  -56.5285 C.3       4 UNK         0.0263 
     53 CB         33.0298  -51.2836  -57.6401 C.3       4 UNK        -0.1967 
     54 N          32.6490  -51.6357  -55.2382 N.am      4 UNK        -0.4237 
     55 C          32.0311  -52.0598  -54.1258 C.2       3 UNK         0.4908 
     56 O          30.8592  -52.4352  -54.0940 O.2       3 UNK        -0.5102 
     57 CA         32.8491  -52.0299  -52.8215 C.3       3 UNK         0.0241 
     58 CB         33.6110  -53.3513  -52.6306 C.3       3 UNK        -0.1971 
     59 N          33.7880  -50.9029  -52.7408 N.am      3 UNK        -0.4139 
     60 C          33.4213  -49.6139  -52.7337 C.2       2 UNK         0.5016 
     61 O          32.2499  -49.2392  -52.8037 O.2       2 UNK        -0.5319 
     62 CA         34.5477  -48.5756  -52.6950 C.3       2 UNK         0.0286 
     63 CB         35.2140  -48.4422  -54.0788 C.3       2 UNK        -0.1963 
     64 N          34.0017  -47.2849  -52.2770 N.am      2 UNK        -0.4790 
     65 C          34.7050  -46.2642  -51.7756 C.2       1 UNK         0.5024 
     66 O          35.9252  -46.3073  -51.6093 O.2       1 UNK        -0.4888 
     67 H67        30.7604  -45.5639  -48.9855 H         1 UNK         0.0892 
     68 H68        29.5836  -45.3073  -50.2763 H         1 UNK         0.0892 
     69 H69        30.1389  -46.9404  -49.9004 H         1 UNK         0.0892 
     70 H70        32.8037  -44.9808  -49.6138 H         1 UNK         0.3107 
     71 H71        34.6080  -44.4593  -50.6817 H         1 UNK         0.0773 
     72 H72        33.0559  -44.4909  -53.3099 H         1 UNK         0.0680 
     73 H73        34.6883  -43.9014  -53.1244 H         1 UNK         0.0680 
     74 H74        34.0346  -41.5578  -54.1970 H         1 UNK         0.0650 
     75 H75        32.7940  -40.4984  -53.5719 H         1 UNK         0.0650 
     76 H76        33.4622  -43.2939  -55.7851 H         1 UNK         0.1397 
     77 H77        29.3634  -44.0600  -56.7636 H         1 UNK         0.1363 
     78 H78        30.3406  -41.2421  -53.6785 H         1 UNK         0.1355 
     79 H79        28.0699  -42.1530  -53.8903 H         1 UNK         0.0707 
     80 H80        27.6475  -43.2816  -55.1293 H         1 UNK         0.0707 
     81 H81        27.7496  -40.5222  -58.2192 H         1 UNK         0.1034 
     82 H82        28.6619  -41.9333  -57.8064 H         1 UNK         0.1034 
     83 H83        25.6002  -41.8034  -58.0340 H         1 UNK         0.0482 
     84 H84        25.2771  -41.1445  -60.1817 H         1 UNK         0.3460 
     85 H85        26.0693  -41.8902  -61.5448 H         1 UNK         0.3460 
     86 H86        27.1392  -43.7060  -56.7402 H         1 UNK         0.2989 
     87 H87        26.5814  -45.6031  -56.0332 H         1 UNK         0.0559 
     88 H88        24.2681  -45.0221  -55.2852 H         1 UNK         0.0848 
     89 H89        24.5993  -46.7367  -55.0972 H         1 UNK         0.0848 
     90 H90        23.5979  -46.1711  -56.4350 H         1 UNK         0.0848 
     91 H91        25.3138  -47.7828  -57.3024 H         1 UNK         0.3144 
     92 H92        26.2678  -48.9191  -59.2530 H         1 UNK         0.0727 
     93 H93        28.3881  -49.9268  -60.0755 H         1 UNK         0.0790 
     94 H94        29.3294  -48.7669  -59.1403 H         1 UNK         0.0790 
     95 H95        28.3205  -48.2162  -60.4706 H         1 UNK         0.0790 
     96 H96        28.2283  -50.0413  -57.3787 H         1 UNK         0.3215 
     97 H97        25.6848  -51.4446  -55.2380 H         1 UNK         0.0863 
     98 H98        27.3161  -53.2723  -55.5800 H         1 UNK         0.0808 
     99 H99        28.0700  -52.4041  -56.9126 H         1 UNK         0.0808 
    100 H100       26.4144  -52.9767  -57.0578 H         1 UNK         0.0808 
    101 H101       28.5594  -50.6682  -55.1703 H         1 UNK         0.3118 
    102 H102       28.0813  -48.3850  -52.5449 H         1 UNK         0.0546 
    103 H103       29.3740  -51.1489  -52.2551 H         1 UNK         0.0828 
    104 H104       28.1849  -50.4501  -51.1658 H         1 UNK         0.0828 
    105 H105       29.7778  -49.7205  -51.3042 H         1 UNK         0.0828 
    106 H106       30.4796  -49.3605  -53.6842 H         1 UNK         0.3005 
    107 H107       30.3021  -47.6270  -56.7737 H         1 UNK         0.1257 
    108 H108       32.2101  -47.0347  -54.4662 H         1 UNK         0.0775 
    109 H109       31.0401  -45.8752  -54.9884 H         1 UNK         0.0775 
    110 H110       32.5365  -44.3536  -58.1651 H         1 UNK         0.0840 
    111 H111       31.0332  -45.2179  -57.9522 H         1 UNK         0.0840 
    112 H112       32.4082  -49.1194  -55.5732 H         1 UNK         0.2987 
    113 H113       31.3968  -52.3490  -56.7443 H         1 UNK         0.0785 
    114 H114       32.5488  -51.1561  -58.6110 H         1 UNK         0.0798 
    115 H115       33.6739  -52.1602  -57.7127 H         1 UNK         0.0798 
    116 H116       33.6653  -50.4126  -57.4750 H         1 UNK         0.0798 
    117 H117       33.6204  -51.3693  -55.1777 H         1 UNK         0.3079 
    118 H118       32.1390  -51.9245  -51.9982 H         1 UNK         0.0794 
    119 H119       34.1152  -53.3830  -51.6645 H         1 UNK         0.0786 
    120 H120       34.3615  -53.5030  -53.4074 H         1 UNK         0.0786 
    121 H121       32.9294  -54.2026  -52.6654 H         1 UNK         0.0786 
    122 H122       34.7699  -51.1338  -52.6840 H         1 UNK         0.3032 
    123 H123       35.2863  -48.9022  -51.9594 H         1 UNK         0.1094 
    124 H124       34.5076  -48.1001  -54.8353 H         1 UNK         0.0794 
    125 H125       36.0415  -47.7330  -54.0557 H         1 UNK         0.0794 
    126 H126       35.6224  -49.3949  -54.4176 H         1 UNK         0.0794 
    127 H127       32.9887  -47.1920  -52.3547 H         1 UNK         0.3016 
@<TRIPOS>BOND
     1    1    2 1    
     2    1   67 1    
     3    1   68 1    
     4    1   69 1    
     5    2    3 2    
     6    2    4 am   BACKBONE|DICT|INTERRES
     7    4    5 1    
     8    4   70 1    
     9    5    6 1    
    10    5   65 1    
    11    5   71 1    
    12    6    7 1    
    13    6   72 1    
    14    6   73 1    
    15    7    8 1    
    16    8    9 1    
    17    8   74 1    
    18    8   75 1    
    19    9   10 ar   
    20    9   14 ar   
    21   10   11 ar   
    22   10   76 1    
    23   11   12 ar   
    24   11   48 1    
    25   12   13 ar   
    26   12   77 1    
    27   13   14 ar   
    28   13   15 1    
    29   14   78 1    
    30   15   16 1    
    31   15   79 1    
    32   15   80 1    
    33   16   17 1    
    34   17   18 1    
    35   17   81 1    
    36   17   82 1    
    37   18   19 1    
    38   18   22 1    
    39   18   83 1    
    40   19   20 am   BACKBONE|DICT|INTERRES
    41   19   21 2    
    42   20   84 1    
    43   20   85 1    
    44   22   23 am   BACKBONE|DICT|INTERRES
    45   22   86 1    
    46   23   24 2    
    47   23   25 1    
    48   25   26 1    
    49   25   27 1    
    50   25   87 1    
    51   26   88 1    
    52   26   89 1    
    53   26   90 1    
    54   27   28 am   BACKBONE|DICT|INTERRES
    55   27   91 1    
    56   28   29 2    
    57   28   30 1    
    58   30   31 1    
    59   30   32 1    
    60   30   92 1    
    61   31   93 1    
    62   31   94 1    
    63   31   95 1    
    64   32   33 am   BACKBONE|DICT|INTERRES
    65   32   96 1    
    66   33   34 2    
    67   33   35 1    
    68   35   36 1    
    69   35   37 1    
    70   35   97 1    
    71   36   98 1    
    72   36   99 1    
    73   36  100 1    
    74   37   38 am   BACKBONE|DICT|INTERRES
    75   37  101 1    
    76   38   39 2    
    77   38   40 1    
    78   40   41 1    
    79   40   42 1    
    80   40  102 1    
    81   41  103 1    
    82   41  104 1    
    83   41  105 1    
    84   42   43 am   BACKBONE|DICT|INTERRES
    85   42  106 1    
    86   43   44 2    
    87   43   45 1    
    88   45   46 1    
    89   45   49 1    
    90   45  107 1    
    91   46   47 1    
    92   46  108 1    
    93   46  109 1    
    94   47   48 1    
    95   48  110 1    
    96   48  111 1    
    97   49   50 am   BACKBONE|DICT|INTERRES
    98   49  112 1    
    99   50   51 2    
   100   50   52 1    
   101   52   53 1    
   102   52   54 1    
   103   52  113 1    
   104   53  114 1    
   105   53  115 1    
   106   53  116 1    
   107   54   55 am   BACKBONE|DICT|INTERRES
   108   54  117 1    
   109   55   56 2    
   110   55   57 1    
   111   57   58 1    
   112   57   59 1    
   113   57  118 1    
   114   58  119 1    
   115   58  120 1    
   116   58  121 1    
   117   59   60 am   BACKBONE|DICT|INTERRES
   118   59  122 1    
   119   60   61 2    
   120   60   62 1    
   121   62   63 1    
   122   62   64 1    
   123   62  123 1    
   124   63  124 1    
   125   63  125 1    
   126   63  126 1    
   127   64   65 am   BACKBONE|DICT|INTERRES
   128   64  127 1    
   129   65   66 2    
@<TRIPOS>SUBSTRUCTURE
     1 UNK         1 GROUP             0       ****    0 ROOT    
