@<TRIPOS>MOLECULE
3R134
127   129    1
SMALL
USER_CHARGES


@<TRIPOS>ATOM
      1 CA         33.6953  -47.4244  -58.4894 C.3       0 UNK        -0.1968 
      2 C          33.5067  -47.3110  -56.9849 C.2       0 UNK         0.4852 
      3 O          32.9936  -48.2412  -56.3650 O.2       0 UNK        -0.5359 
      4 N          33.9317  -46.1862  -56.3928 N.am      1 UNK        -0.4300 
      5 CA         33.7763  -45.8438  -54.9695 C.3       1 UNK         0.0863 
      6 C6         34.3340  -44.4320  -54.6601 C.3       11 UNK        -0.0953 
      7 S7         33.6254  -43.1310  -55.7254 S.3       11 UNK        -0.2369 
      8 C8         32.8945  -41.9983  -54.5052 C.3       11 UNK         0.0226 
      9 C9         31.5831  -42.5269  -53.9444 C.ar      11 UNK        -0.0699 
     10 C10        31.5316  -43.0976  -52.6700 C.ar      11 UNK        -0.0804 
     11 C11        30.3133  -43.5261  -52.1341 C.ar      11 UNK        -0.0871 
     12 C12        29.1429  -43.3868  -52.8862 C.ar      11 UNK        -0.1008 
     13 C13        29.1844  -42.8454  -54.1776 C.ar      11 UNK        -0.0735 
     14 C14        30.4089  -42.4088  -54.6918 C.ar      11 UNK        -0.0945 
     15 C15        27.9276  -42.6853  -55.0293 C.3       11 UNK         0.0169 
     16 S16        26.7217  -44.0372  -54.8232 S.3       11 UNK        -0.2669 
     17 C17        25.8372  -43.9834  -56.4201 C.3       11 UNK        -0.0850 
     18 CA         26.0912  -45.2636  -57.2652 C.3       10 UNK         0.0855 
     19 C          25.2035  -45.3448  -58.5445 C.2       10 UNK         0.5543 
     20 N          25.6640  -45.9499  -59.6342 N.am      10 UNK        -0.7343 
     21 O          24.0644  -44.8852  -58.5413 O.2       10 UNK        -0.5027 
     22 N          27.5187  -45.5434  -57.4920 N.am      10 UNK        -0.4495 
     23 C          28.3702  -44.8141  -58.2258 C.2       10 UNK         0.4903 
     24 O          28.0882  -43.7314  -58.7397 O.2       10 UNK        -0.4860 
     25 CA         29.7732  -45.4086  -58.4549 C.3       9 UNK         0.0227 
     26 CB         30.7740  -44.7961  -57.4642 C.3       9 UNK        -0.1964 
     27 N          29.8124  -46.8740  -58.3585 N.am      9 UNK        -0.4231 
     28 C          29.1498  -47.7120  -59.1714 C.2       9 UNK         0.5014 
     29 O          28.5190  -47.3458  -60.1646 O.2       9 UNK        -0.5270 
     30 CA         29.1025  -49.1999  -58.7713 C.3       8 UNK         0.0284 
     31 CB         30.3320  -49.6674  -57.9578 C.3       8 UNK        -0.1977 
     32 N          27.8467  -49.5141  -58.0705 N.am      8 UNK        -0.4342 
     33 C          27.4175  -48.9513  -56.9328 C.2       8 UNK         0.5039 
     34 O          28.0721  -48.1165  -56.2969 O.2       8 UNK        -0.5547 
     35 CA         26.0220  -49.3427  -56.4206 C.3       7 UNK         0.0281 
     36 CB         25.9598  -50.8145  -55.9723 C.3       7 UNK        -0.1963 
     37 N          25.7795  -48.4545  -55.2948 N.am      7 UNK        -0.4444 
     38 C          24.6626  -48.1807  -54.6209 C.2       7 UNK         0.5104 
     39 O          23.5733  -48.7069  -54.8510 O.2       7 UNK        -0.5100 
     40 CA         24.7943  -47.0962  -53.5250 C.3       6 UNK         0.0396 
     41 CB         23.9162  -47.3924  -52.2913 C.3       6 UNK        -0.1801 
     42 N          26.1909  -46.8032  -53.1423 N.am      6 UNK        -0.4747 
     43 C          27.0519  -47.6401  -52.5426 C.2       6 UNK         0.5012 
     44 O          26.7352  -48.7576  -52.1234 O.2       6 UNK        -0.5003 
     45 CA         28.5139  -47.1742  -52.3984 C.3       5 UNK         0.0782 
     46 C46        28.7176  -46.4780  -51.0297 C.3       11 UNK        -0.0868 
     47 S47        30.4348  -45.9245  -50.7486 S.3       11 UNK        -0.2515 
     48 C48        30.2649  -44.1119  -50.7310 C.3       11 UNK         0.0199 
     49 N          29.3200  -48.3862  -52.5314 N.am      5 UNK        -0.4607 
     50 C          30.2346  -48.6290  -53.4736 C.2       4 UNK         0.5031 
     51 O          30.6902  -47.7852  -54.2459 O.2       4 UNK        -0.5119 
     52 CA         30.6537  -50.0993  -53.5893 C.3       4 UNK         0.0263 
     53 CB         29.5336  -50.9250  -54.2577 C.3       4 UNK        -0.1967 
     54 N          31.9031  -50.2392  -54.3359 N.am      4 UNK        -0.4237 
     55 C          32.6647  -51.3430  -54.3170 C.2       3 UNK         0.4908 
     56 O          32.3902  -52.3543  -53.6688 O.2       3 UNK        -0.5102 
     57 CA         33.9607  -51.3252  -55.1365 C.3       3 UNK         0.0241 
     58 CB         33.6748  -51.5084  -56.6371 C.3       3 UNK        -0.1971 
     59 N          34.7091  -50.0912  -54.9066 N.am      3 UNK        -0.4139 
     60 C          35.5738  -49.9135  -53.8964 C.2       2 UNK         0.5016 
     61 O          35.8616  -50.7918  -53.0819 O.2       2 UNK        -0.5319 
     62 CA         36.2559  -48.5391  -53.7698 C.3       2 UNK         0.0286 
     63 CB         37.6980  -48.6050  -54.2995 C.3       2 UNK        -0.1963 
     64 N          35.5411  -47.4745  -54.4744 N.am      2 UNK        -0.4790 
     65 C          34.4309  -46.8730  -54.0230 C.2       1 UNK         0.5024 
     66 O          33.9308  -47.1037  -52.9222 O.2       1 UNK        -0.4888 
     67 H67        32.7276  -47.4139  -58.9895 H         1 UNK         0.0892 
     68 H68        34.2928  -46.6051  -58.8883 H         1 UNK         0.0892 
     69 H69        34.1961  -48.3605  -58.7349 H         1 UNK         0.0892 
     70 H70        34.3421  -45.4563  -56.9579 H         1 UNK         0.3107 
     71 H71        32.7051  -45.8460  -54.7540 H         1 UNK         0.0773 
     72 H72        35.4173  -44.4099  -54.7946 H         1 UNK         0.0680 
     73 H73        34.1571  -44.1790  -53.6135 H         1 UNK         0.0680 
     74 H74        32.7152  -41.0371  -54.9891 H         1 UNK         0.0650 
     75 H75        33.6121  -41.8036  -53.7067 H         1 UNK         0.0650 
     76 H76        32.4370  -43.1930  -52.0865 H         1 UNK         0.1397 
     77 H77        28.1998  -43.7013  -52.4630 H         1 UNK         0.1363 
     78 H78        30.4520  -41.9661  -55.6776 H         1 UNK         0.1355 
     79 H79        27.4463  -41.7381  -54.7834 H         1 UNK         0.0707 
     80 H80        28.2123  -42.6275  -56.0808 H         1 UNK         0.0707 
     81 H81        24.7737  -43.8811  -56.1968 H         1 UNK         0.1034 
     82 H82        26.1087  -43.0889  -56.9825 H         1 UNK         0.1034 
     83 H83        25.7421  -46.0998  -56.6626 H         1 UNK         0.0482 
     84 H84        26.6023  -46.3264  -59.6647 H         1 UNK         0.3460 
     85 H85        25.0754  -46.0048  -60.4502 H         1 UNK         0.3460 
     86 H86        27.8583  -46.4147  -57.0919 H         1 UNK         0.2989 
     87 H87        30.0806  -45.1323  -59.4654 H         1 UNK         0.0559 
     88 H88        30.6037  -45.1403  -56.4425 H         1 UNK         0.0848 
     89 H89        30.7031  -43.7078  -57.4570 H         1 UNK         0.0848 
     90 H90        31.7974  -45.0383  -57.7415 H         1 UNK         0.0848 
     91 H91        30.2158  -47.2647  -57.5166 H         1 UNK         0.3144 
     92 H92        29.0920  -49.7695  -59.7019 H         1 UNK         0.0727 
     93 H93        30.2973  -50.7421  -57.7801 H         1 UNK         0.0790 
     94 H94        30.4082  -49.1802  -56.9852 H         1 UNK         0.0790 
     95 H95        31.2574  -49.4634  -58.4971 H         1 UNK         0.0790 
     96 H96        27.2337  -50.1612  -58.5476 H         1 UNK         0.3215 
     97 H97        25.2846  -49.1466  -57.2013 H         1 UNK         0.0863 
     98 H98        24.9711  -51.0715  -55.5922 H         1 UNK         0.0808 
     99 H99        26.6820  -51.0258  -55.1841 H         1 UNK         0.0808 
    100 H100       26.1702  -51.4915  -56.8007 H         1 UNK         0.0808 
    101 H101       26.6223  -47.9418  -55.0546 H         1 UNK         0.3118 
    102 H102       24.4167  -46.1775  -53.9761 H         1 UNK         0.0546 
    103 H103       24.1640  -48.3501  -51.8334 H         1 UNK         0.0828 
    104 H104       22.8613  -47.4320  -52.5652 H         1 UNK         0.0828 
    105 H105       24.0231  -46.6179  -51.5321 H         1 UNK         0.0828 
    106 H106       26.5324  -45.9029  -53.4603 H         1 UNK         0.3005 
    107 H107       28.7480  -46.4749  -53.2058 H         1 UNK         0.1257 
    108 H108       28.4572  -47.1563  -50.2145 H         1 UNK         0.0775 
    109 H109       28.0413  -45.6272  -50.9338 H         1 UNK         0.0775 
    110 H110       29.3451  -43.8195  -50.2225 H         1 UNK         0.0840 
    111 H111       31.0770  -43.6966  -50.1322 H         1 UNK         0.0840 
    112 H112       28.9602  -49.1658  -51.9976 H         1 UNK         0.2987 
    113 H113       30.8190  -50.4733  -52.5764 H         1 UNK         0.0785 
    114 H114       29.7712  -51.9882  -54.2817 H         1 UNK         0.0798 
    115 H115       29.3569  -50.6002  -55.2825 H         1 UNK         0.0798 
    116 H116       28.5924  -50.8235  -53.7165 H         1 UNK         0.0798 
    117 H117       32.1798  -49.4261  -54.8838 H         1 UNK         0.3079 
    118 H118       34.5697  -52.1740  -54.8170 H         1 UNK         0.0794 
    119 H119       33.1761  -52.4607  -56.8213 H         1 UNK         0.0786 
    120 H120       34.5964  -51.5072  -57.2191 H         1 UNK         0.0786 
    121 H121       33.0282  -50.7263  -57.0331 H         1 UNK         0.0786 
    122 H122       34.4482  -49.2966  -55.4806 H         1 UNK         0.3032 
    123 H123       36.2925  -48.2921  -52.7060 H         1 UNK         0.1094 
    124 H124       38.2175  -47.6572  -54.1564 H         1 UNK         0.0794 
    125 H125       38.2723  -49.3690  -53.7732 H         1 UNK         0.0794 
    126 H126       37.7284  -48.8494  -55.3621 H         1 UNK         0.0794 
    127 H127       35.8872  -47.2157  -55.3874 H         1 UNK         0.3016 
@<TRIPOS>BOND
     1    1    2 1    
     2    1   67 1    
     3    1   68 1    
     4    1   69 1    
     5    2    3 2    
     6    2    4 am   BACKBONE|DICT|INTERRES
     7    4    5 1    
     8    4   70 1    
     9    5    6 1    
    10    5   65 1    
    11    5   71 1    
    12    6    7 1    
    13    6   72 1    
    14    6   73 1    
    15    7    8 1    
    16    8    9 1    
    17    8   74 1    
    18    8   75 1    
    19    9   10 ar   
    20    9   14 ar   
    21   10   11 ar   
    22   10   76 1    
    23   11   12 ar   
    24   11   48 1    
    25   12   13 ar   
    26   12   77 1    
    27   13   14 ar   
    28   13   15 1    
    29   14   78 1    
    30   15   16 1    
    31   15   79 1    
    32   15   80 1    
    33   16   17 1    
    34   17   18 1    
    35   17   81 1    
    36   17   82 1    
    37   18   19 1    
    38   18   22 1    
    39   18   83 1    
    40   19   20 am   BACKBONE|DICT|INTERRES
    41   19   21 2    
    42   20   84 1    
    43   20   85 1    
    44   22   23 am   BACKBONE|DICT|INTERRES
    45   22   86 1    
    46   23   24 2    
    47   23   25 1    
    48   25   26 1    
    49   25   27 1    
    50   25   87 1    
    51   26   88 1    
    52   26   89 1    
    53   26   90 1    
    54   27   28 am   BACKBONE|DICT|INTERRES
    55   27   91 1    
    56   28   29 2    
    57   28   30 1    
    58   30   31 1    
    59   30   32 1    
    60   30   92 1    
    61   31   93 1    
    62   31   94 1    
    63   31   95 1    
    64   32   33 am   BACKBONE|DICT|INTERRES
    65   32   96 1    
    66   33   34 2    
    67   33   35 1    
    68   35   36 1    
    69   35   37 1    
    70   35   97 1    
    71   36   98 1    
    72   36   99 1    
    73   36  100 1    
    74   37   38 am   BACKBONE|DICT|INTERRES
    75   37  101 1    
    76   38   39 2    
    77   38   40 1    
    78   40   41 1    
    79   40   42 1    
    80   40  102 1    
    81   41  103 1    
    82   41  104 1    
    83   41  105 1    
    84   42   43 am   BACKBONE|DICT|INTERRES
    85   42  106 1    
    86   43   44 2    
    87   43   45 1    
    88   45   46 1    
    89   45   49 1    
    90   45  107 1    
    91   46   47 1    
    92   46  108 1    
    93   46  109 1    
    94   47   48 1    
    95   48  110 1    
    96   48  111 1    
    97   49   50 am   BACKBONE|DICT|INTERRES
    98   49  112 1    
    99   50   51 2    
   100   50   52 1    
   101   52   53 1    
   102   52   54 1    
   103   52  113 1    
   104   53  114 1    
   105   53  115 1    
   106   53  116 1    
   107   54   55 am   BACKBONE|DICT|INTERRES
   108   54  117 1    
   109   55   56 2    
   110   55   57 1    
   111   57   58 1    
   112   57   59 1    
   113   57  118 1    
   114   58  119 1    
   115   58  120 1    
   116   58  121 1    
   117   59   60 am   BACKBONE|DICT|INTERRES
   118   59  122 1    
   119   60   61 2    
   120   60   62 1    
   121   62   63 1    
   122   62   64 1    
   123   62  123 1    
   124   63  124 1    
   125   63  125 1    
   126   63  126 1    
   127   64   65 am   BACKBONE|DICT|INTERRES
   128   64  127 1    
   129   65   66 2    
@<TRIPOS>SUBSTRUCTURE
     1 UNK         1 GROUP             0       ****    0 ROOT    
