@<TRIPOS>MOLECULE
3R134
127   129    1
SMALL
USER_CHARGES


@<TRIPOS>ATOM
      1 CA         33.0472  -46.4298  -50.7863 C.3       0 UNK        -0.1968 
      2 C          34.3282  -45.9942  -51.4826 C.2       0 UNK         0.4852 
      3 O          35.0344  -45.1180  -50.9808 O.2       0 UNK        -0.5359 
      4 N          34.6227  -46.5971  -52.6368 N.am      1 UNK        -0.4300 
      5 CA         35.7717  -46.2853  -53.4884 C.3       1 UNK         0.0863 
      6 C6         35.5969  -44.9912  -54.3395 C.3       11 UNK        -0.0953 
      7 S7         33.9297  -44.7785  -55.0694 S.3       11 UNK        -0.2369 
      8 C8         33.3871  -43.2526  -54.2337 C.3       11 UNK         0.0226 
      9 C9         31.8877  -43.2317  -53.9812 C.ar      11 UNK        -0.0699 
     10 C10        31.3935  -43.4355  -52.6895 C.ar      11 UNK        -0.0804 
     11 C11        30.0234  -43.3449  -52.4289 C.ar      11 UNK        -0.0871 
     12 C12        29.1396  -43.0775  -53.4794 C.ar      11 UNK        -0.1008 
     13 C13        29.6218  -42.8691  -54.7765 C.ar      11 UNK        -0.0735 
     14 C14        30.9976  -42.9458  -55.0197 C.ar      11 UNK        -0.0945 
     15 C15        28.6672  -42.4830  -55.8980 C.3       11 UNK         0.0169 
     16 S16        28.6977  -43.6659  -57.2802 S.3       11 UNK        -0.2669 
     17 C17        27.5680  -42.8360  -58.4536 C.3       11 UNK        -0.0850 
     18 CA         26.2481  -43.6298  -58.6771 C.3       10 UNK         0.0855 
     19 C          25.1798  -42.8163  -59.4717 C.2       10 UNK         0.5543 
     20 N          24.3279  -43.4493  -60.2692 N.am      10 UNK        -0.7343 
     21 O          25.0957  -41.5973  -59.3408 O.2       10 UNK        -0.5027 
     22 N          26.4854  -44.9953  -59.1798 N.am      10 UNK        -0.4495 
     23 C          27.0353  -45.3333  -60.3525 C.2       10 UNK         0.4903 
     24 O          27.3995  -44.5200  -61.2035 O.2       10 UNK        -0.4860 
     25 CA         27.2219  -46.8435  -60.5989 C.3       9 UNK         0.0227 
     26 CB         27.7378  -47.1538  -62.0170 C.3       9 UNK        -0.1964 
     27 N          28.1301  -47.4481  -59.6198 N.am      9 UNK        -0.4231 
     28 C          27.8127  -47.7596  -58.3567 C.2       9 UNK         0.5014 
     29 O          26.7029  -47.5479  -57.8585 O.2       9 UNK        -0.5270 
     30 CA         28.9370  -48.3764  -57.5062 C.3       8 UNK         0.0284 
     31 CB         29.7126  -47.2756  -56.7613 C.3       8 UNK        -0.1977 
     32 N          28.4247  -49.3335  -56.5267 N.am      8 UNK        -0.4342 
     33 C          27.7802  -50.4749  -56.8042 C.2       8 UNK         0.5039 
     34 O          27.6122  -50.9111  -57.9443 O.2       8 UNK        -0.5547 
     35 CA         27.2320  -51.2698  -55.6089 C.3       7 UNK         0.0281 
     36 CB         28.2972  -52.2366  -55.0664 C.3       7 UNK        -0.1963 
     37 N          26.7856  -50.3888  -54.5269 N.am      7 UNK        -0.4444 
     38 C          25.5308  -49.9472  -54.3685 C.2       7 UNK         0.5104 
     39 O          24.6003  -50.2528  -55.1152 O.2       7 UNK        -0.5100 
     40 CA         25.2433  -49.0379  -53.1577 C.3       6 UNK         0.0396 
     41 CB         24.5545  -49.8424  -52.0430 C.3       6 UNK        -0.1801 
     42 N          26.4437  -48.4019  -52.6077 N.am      6 UNK        -0.4747 
     43 C          26.9940  -47.2740  -53.0810 C.2       6 UNK         0.5012 
     44 O          26.5209  -46.6196  -54.0095 O.2       6 UNK        -0.5003 
     45 CA         28.3021  -46.8017  -52.4076 C.3       5 UNK         0.0782 
     46 C46        27.9737  -45.8183  -51.2589 C.3       11 UNK        -0.0868 
     47 S47        29.4661  -45.1861  -50.4217 S.3       11 UNK        -0.2515 
     48 C48        29.5163  -43.4631  -50.9985 C.3       11 UNK         0.0199 
     49 N          29.1759  -47.8969  -51.9543 N.am      5 UNK        -0.4607 
     50 C          29.6503  -48.8791  -52.7271 C.2       4 UNK         0.5031 
     51 O          29.2833  -49.0678  -53.8872 O.2       4 UNK        -0.5119 
     52 CA         30.6637  -49.8446  -52.0906 C.3       4 UNK         0.0263 
     53 CB         29.9287  -50.9682  -51.3420 C.3       4 UNK        -0.1967 
     54 N          31.5309  -50.4374  -53.1129 N.am      4 UNK        -0.4237 
     55 C          32.4224  -49.7434  -53.8309 C.2       3 UNK         0.4908 
     56 O          32.7418  -48.5738  -53.5835 O.2       3 UNK        -0.5102 
     57 CA         33.0458  -50.4676  -55.0338 C.3       3 UNK         0.0241 
     58 CB         31.9913  -50.8518  -56.0891 C.3       3 UNK        -0.1971 
     59 N          34.0128  -49.5552  -55.6232 N.am      3 UNK        -0.4139 
     60 C          35.1663  -49.8696  -56.2163 C.2       2 UNK         0.5016 
     61 O          35.5060  -51.0168  -56.5087 O.2       2 UNK        -0.5319 
     62 CA         36.1168  -48.6906  -56.5017 C.3       2 UNK         0.0286 
     63 CB         35.9741  -48.2238  -57.9593 C.3       2 UNK        -0.1963 
     64 N          35.9030  -47.5442  -55.6054 N.am      2 UNK        -0.4790 
     65 C          36.1286  -47.5520  -54.2826 C.2       1 UNK         0.5024 
     66 O          36.5906  -48.5225  -53.6801 O.2       1 UNK        -0.4888 
     67 H67        33.2534  -47.2391  -50.0866 H         1 UNK         0.0892 
     68 H68        32.6137  -45.5988  -50.2303 H         1 UNK         0.0892 
     69 H69        32.3027  -46.7734  -51.5050 H         1 UNK         0.0892 
     70 H70        34.0011  -47.3229  -52.9918 H         1 UNK         0.3107 
     71 H71        36.6323  -46.1228  -52.8357 H         1 UNK         0.0773 
     72 H72        36.3420  -44.9332  -55.1350 H         1 UNK         0.0680 
     73 H73        35.8226  -44.1344  -53.7045 H         1 UNK         0.0680 
     74 H74        33.6727  -42.3936  -54.8424 H         1 UNK         0.0650 
     75 H75        33.9085  -43.1372  -53.2826 H         1 UNK         0.0650 
     76 H76        32.0787  -43.6332  -51.8765 H         1 UNK         0.1397 
     77 H77        28.0798  -42.9942  -53.2803 H         1 UNK         0.1363 
     78 H78        31.3771  -42.7680  -56.0168 H         1 UNK         0.1355 
     79 H79        27.6442  -42.4030  -55.5266 H         1 UNK         0.0707 
     80 H80        28.9446  -41.4933  -56.2640 H         1 UNK         0.0707 
     81 H81        27.3518  -41.8322  -58.0842 H         1 UNK         0.1034 
     82 H82        28.0938  -42.6903  -59.3982 H         1 UNK         0.1034 
     83 H83        25.7948  -43.7685  -57.6950 H         1 UNK         0.0482 
     84 H84        24.3782  -44.4498  -60.3750 H         1 UNK         0.3460 
     85 H85        23.6325  -42.9203  -60.7716 H         1 UNK         0.3460 
     86 H86        26.2667  -45.7514  -58.5372 H         1 UNK         0.2989 
     87 H87        26.2399  -47.3108  -60.4981 H         1 UNK         0.0559 
     88 H88        28.7257  -46.7260  -62.1925 H         1 UNK         0.0848 
     89 H89        27.0672  -46.7454  -62.7744 H         1 UNK         0.0848 
     90 H90        27.8012  -48.2282  -62.1908 H         1 UNK         0.0848 
     91 H91        29.0765  -47.6122  -59.9324 H         1 UNK         0.3144 
     92 H92        29.6252  -48.9121  -58.1631 H         1 UNK         0.0727 
     93 H93        30.5296  -47.6884  -56.1690 H         1 UNK         0.0790 
     94 H94        29.0631  -46.7167  -56.0853 H         1 UNK         0.0790 
     95 H95        30.1478  -46.5588  -57.4588 H         1 UNK         0.0790 
     96 H96        28.5768  -49.0970  -55.5485 H         1 UNK         0.3215 
     97 H97        26.3903  -51.8664  -55.9678 H         1 UNK         0.0863 
     98 H98        29.1549  -51.7036  -54.6575 H         1 UNK         0.0808 
     99 H99        28.6652  -52.8953  -55.8543 H         1 UNK         0.0808 
    100 H100       27.8906  -52.8699  -54.2779 H         1 UNK         0.0808 
    101 H101       27.5086  -50.0155  -53.9233 H         1 UNK         0.3118 
    102 H102       24.5501  -48.2614  -53.4886 H         1 UNK         0.0546 
    103 H103       25.1934  -50.6420  -51.6662 H         1 UNK         0.0828 
    104 H104       23.6355  -50.3047  -52.4062 H         1 UNK         0.0828 
    105 H105       24.2823  -49.2040  -51.2024 H         1 UNK         0.0828 
    106 H106       26.8965  -48.8671  -51.8338 H         1 UNK         0.3005 
    107 H107       28.8608  -46.2543  -53.1711 H         1 UNK         0.1257 
    108 H108       27.3558  -46.3076  -50.5034 H         1 UNK         0.0775 
    109 H109       27.3833  -44.9788  -51.6309 H         1 UNK         0.0775 
    110 H110       28.5307  -43.0070  -50.8925 H         1 UNK         0.0840 
    111 H111       30.1765  -42.8975  -50.3391 H         1 UNK         0.0840 
    112 H112       29.5115  -47.8134  -51.0054 H         1 UNK         0.2987 
    113 H113       31.2869  -49.2903  -51.3855 H         1 UNK         0.0785 
    114 H114       29.3006  -50.5650  -50.5465 H         1 UNK         0.0798 
    115 H115       29.2829  -51.5442  -52.0063 H         1 UNK         0.0798 
    116 H116       30.6314  -51.6593  -50.8759 H         1 UNK         0.0798 
    117 H117       31.3222  -51.3861  -53.3854 H         1 UNK         0.3079 
    118 H118       33.5581  -51.3614  -54.6715 H         1 UNK         0.0794 
    119 H119       31.3084  -51.6110  -55.7094 H         1 UNK         0.0786 
    120 H120       32.4580  -51.2637  -56.9841 H         1 UNK         0.0786 
    121 H121       31.3923  -49.9926  -56.3918 H         1 UNK         0.0786 
    122 H122       33.8548  -48.5877  -55.3703 H         1 UNK         0.3032 
    123 H123       37.1363  -49.0531  -56.3515 H         1 UNK         0.1094 
    124 H124       36.1503  -49.0484  -58.6517 H         1 UNK         0.0794 
    125 H125       34.9757  -47.8346  -58.1634 H         1 UNK         0.0794 
    126 H126       36.6959  -47.4426  -58.1989 H         1 UNK         0.0794 
    127 H127       35.5070  -46.7085  -56.0154 H         1 UNK         0.3016 
@<TRIPOS>BOND
     1    1    2 1    
     2    1   67 1    
     3    1   68 1    
     4    1   69 1    
     5    2    3 2    
     6    2    4 am   BACKBONE|DICT|INTERRES
     7    4    5 1    
     8    4   70 1    
     9    5    6 1    
    10    5   65 1    
    11    5   71 1    
    12    6    7 1    
    13    6   72 1    
    14    6   73 1    
    15    7    8 1    
    16    8    9 1    
    17    8   74 1    
    18    8   75 1    
    19    9   10 ar   
    20    9   14 ar   
    21   10   11 ar   
    22   10   76 1    
    23   11   12 ar   
    24   11   48 1    
    25   12   13 ar   
    26   12   77 1    
    27   13   14 ar   
    28   13   15 1    
    29   14   78 1    
    30   15   16 1    
    31   15   79 1    
    32   15   80 1    
    33   16   17 1    
    34   17   18 1    
    35   17   81 1    
    36   17   82 1    
    37   18   19 1    
    38   18   22 1    
    39   18   83 1    
    40   19   20 am   BACKBONE|DICT|INTERRES
    41   19   21 2    
    42   20   84 1    
    43   20   85 1    
    44   22   23 am   BACKBONE|DICT|INTERRES
    45   22   86 1    
    46   23   24 2    
    47   23   25 1    
    48   25   26 1    
    49   25   27 1    
    50   25   87 1    
    51   26   88 1    
    52   26   89 1    
    53   26   90 1    
    54   27   28 am   BACKBONE|DICT|INTERRES
    55   27   91 1    
    56   28   29 2    
    57   28   30 1    
    58   30   31 1    
    59   30   32 1    
    60   30   92 1    
    61   31   93 1    
    62   31   94 1    
    63   31   95 1    
    64   32   33 am   BACKBONE|DICT|INTERRES
    65   32   96 1    
    66   33   34 2    
    67   33   35 1    
    68   35   36 1    
    69   35   37 1    
    70   35   97 1    
    71   36   98 1    
    72   36   99 1    
    73   36  100 1    
    74   37   38 am   BACKBONE|DICT|INTERRES
    75   37  101 1    
    76   38   39 2    
    77   38   40 1    
    78   40   41 1    
    79   40   42 1    
    80   40  102 1    
    81   41  103 1    
    82   41  104 1    
    83   41  105 1    
    84   42   43 am   BACKBONE|DICT|INTERRES
    85   42  106 1    
    86   43   44 2    
    87   43   45 1    
    88   45   46 1    
    89   45   49 1    
    90   45  107 1    
    91   46   47 1    
    92   46  108 1    
    93   46  109 1    
    94   47   48 1    
    95   48  110 1    
    96   48  111 1    
    97   49   50 am   BACKBONE|DICT|INTERRES
    98   49  112 1    
    99   50   51 2    
   100   50   52 1    
   101   52   53 1    
   102   52   54 1    
   103   52  113 1    
   104   53  114 1    
   105   53  115 1    
   106   53  116 1    
   107   54   55 am   BACKBONE|DICT|INTERRES
   108   54  117 1    
   109   55   56 2    
   110   55   57 1    
   111   57   58 1    
   112   57   59 1    
   113   57  118 1    
   114   58  119 1    
   115   58  120 1    
   116   58  121 1    
   117   59   60 am   BACKBONE|DICT|INTERRES
   118   59  122 1    
   119   60   61 2    
   120   60   62 1    
   121   62   63 1    
   122   62   64 1    
   123   62  123 1    
   124   63  124 1    
   125   63  125 1    
   126   63  126 1    
   127   64   65 am   BACKBONE|DICT|INTERRES
   128   64  127 1    
   129   65   66 2    
@<TRIPOS>SUBSTRUCTURE
     1 UNK         1 GROUP             0       ****    0 ROOT    
