@<TRIPOS>MOLECULE
3R134
127   129    1
SMALL
USER_CHARGES


@<TRIPOS>ATOM
      1 CA         38.5068  -46.6778  -55.4438 C.3       0 UNK        -0.1968 
      2 C          37.9379  -46.2137  -54.1048 C.2       0 UNK         0.4852 
      3 O          38.5731  -46.4366  -53.0753 O.2       0 UNK        -0.5359 
      4 N          36.7677  -45.5599  -54.0550 N.am      1 UNK        -0.4300 
      5 CA         35.8463  -45.2693  -55.1617 C.3       1 UNK         0.0863 
      6 C6         34.7518  -44.2460  -54.7492 C.3       11 UNK        -0.0953 
      7 S7         33.8833  -44.6564  -53.1902 S.3       11 UNK        -0.2369 
      8 C8         32.3445  -45.4028  -53.8073 C.3       11 UNK         0.0226 
      9 C9         31.2018  -44.4021  -53.8403 C.ar      11 UNK        -0.0699 
     10 C10        30.3341  -44.3058  -52.7501 C.ar      11 UNK        -0.0804 
     11 C11        29.2374  -43.4381  -52.7860 C.ar      11 UNK        -0.0871 
     12 C12        29.0444  -42.6274  -53.9083 C.ar      11 UNK        -0.1008 
     13 C13        29.9171  -42.6991  -54.9986 C.ar      11 UNK        -0.0735 
     14 C14        30.9910  -43.5939  -54.9614 C.ar      11 UNK        -0.0945 
     15 C15        29.7204  -41.7902  -56.2045 C.3       11 UNK         0.0169 
     16 S16        28.8619  -42.6253  -57.5764 S.3       11 UNK        -0.2669 
     17 C17        27.1313  -42.6436  -56.9921 C.3       11 UNK        -0.0850 
     18 CA         26.3888  -43.9432  -57.3951 C.3       10 UNK         0.0855 
     19 C          25.0168  -44.0467  -56.6643 C.2       10 UNK         0.5543 
     20 N          23.8925  -44.1140  -57.3671 N.am      10 UNK        -0.7343 
     21 O          24.9732  -44.0705  -55.4376 O.2       10 UNK        -0.5027 
     22 N          26.3160  -44.0761  -58.8638 N.am      10 UNK        -0.4495 
     23 C          26.1160  -45.1793  -59.6013 C.2       10 UNK         0.4903 
     24 O          25.9732  -45.1005  -60.8211 O.2       10 UNK        -0.4860 
     25 CA         26.0820  -46.5717  -58.9269 C.3       9 UNK         0.0227 
     26 CB         25.6286  -47.6904  -59.8882 C.3       9 UNK        -0.1964 
     27 N          27.3569  -46.9373  -58.3038 N.am      9 UNK        -0.4231 
     28 C          28.5767  -46.9768  -58.8614 C.2       9 UNK         0.5014 
     29 O          28.8189  -46.7312  -60.0438 O.2       9 UNK        -0.5270 
     30 CA         29.7289  -47.3801  -57.9255 C.3       8 UNK         0.0284 
     31 CB         30.1253  -46.1988  -57.0267 C.3       8 UNK        -0.1977 
     32 N          29.3947  -48.5460  -57.1022 N.am      8 UNK        -0.4342 
     33 C          29.2086  -49.7841  -57.5863 C.2       8 UNK         0.5039 
     34 O          29.4145  -50.1030  -58.7578 O.2       8 UNK        -0.5547 
     35 CA         28.6781  -50.8431  -56.6069 C.3       7 UNK         0.0281 
     36 CB         29.8256  -51.4962  -55.8177 C.3       7 UNK        -0.1963 
     37 N          27.6886  -50.2735  -55.6888 N.am      7 UNK        -0.4444 
     38 C          26.4089  -50.0396  -56.0181 C.2       7 UNK         0.5104 
     39 O          25.9115  -50.3603  -57.0973 O.2       7 UNK        -0.5100 
     40 CA         25.5262  -49.3262  -54.9758 C.3       6 UNK         0.0396 
     41 CB         24.7149  -50.3535  -54.1708 C.3       6 UNK        -0.1801 
     42 N          26.2760  -48.4737  -54.0495 N.am      6 UNK        -0.4747 
     43 C          26.9137  -47.3444  -54.3929 C.2       6 UNK         0.5012 
     44 O          26.9231  -46.8902  -55.5348 O.2       6 UNK        -0.5003 
     45 CA         27.7495  -46.6643  -53.2898 C.3       5 UNK         0.0782 
     46 C46        26.8691  -45.6966  -52.4555 C.3       11 UNK        -0.0868 
     47 S47        27.7304  -44.9929  -51.0054 S.3       11 UNK        -0.2515 
     48 C48        28.2640  -43.3577  -51.6147 C.3       11 UNK         0.0199 
     49 N          28.4595  -47.6528  -52.4644 N.am      5 UNK        -0.4607 
     50 C          29.3683  -48.5178  -52.9295 C.2       4 UNK         0.5031 
     51 O          29.7249  -48.5661  -54.1108 O.2       4 UNK        -0.5119 
     52 CA         29.9045  -49.5483  -51.9313 C.3       4 UNK         0.0263 
     53 CB         28.8276  -50.6120  -51.6322 C.3       4 UNK        -0.1967 
     54 N          31.0868  -50.1763  -52.5120 N.am      4 UNK        -0.4237 
     55 C          31.9776  -50.9445  -51.8733 C.2       3 UNK         0.4908 
     56 O          31.9099  -51.2200  -50.6747 O.2       3 UNK        -0.5102 
     57 CA         33.1420  -51.5161  -52.7075 C.3       3 UNK         0.0241 
     58 CB         32.8221  -52.9539  -53.1496 C.3       3 UNK        -0.1971 
     59 N          33.4815  -50.7159  -53.8900 N.am      3 UNK        -0.4139 
     60 C          34.0051  -49.4839  -53.8456 C.2       2 UNK         0.5016 
     61 O          34.2969  -48.9008  -52.7964 O.2       2 UNK        -0.5319 
     62 CA         34.2071  -48.7741  -55.1930 C.3       2 UNK         0.0286 
     63 CB         32.8576  -48.6166  -55.9290 C.3       2 UNK        -0.1963 
     64 N          34.8138  -47.4756  -54.9075 N.am      2 UNK        -0.4790 
     65 C          35.2346  -46.5480  -55.7737 C.2       1 UNK         0.5024 
     66 O          35.1893  -46.6745  -56.9970 O.2       1 UNK        -0.4888 
     67 H67        38.4046  -45.9160  -56.2152 H         1 UNK         0.0892 
     68 H68        39.5695  -46.8990  -55.3466 H         1 UNK         0.0892 
     69 H69        38.0082  -47.5872  -55.7777 H         1 UNK         0.0892 
     70 H70        36.4290  -45.2641  -53.1502 H         1 UNK         0.3107 
     71 H71        36.4284  -44.7941  -55.9532 H         1 UNK         0.0773 
     72 H72        34.0310  -44.0963  -55.5548 H         1 UNK         0.0680 
     73 H73        35.2191  -43.2712  -54.6020 H         1 UNK         0.0680 
     74 H74        32.0837  -46.2484  -53.1684 H         1 UNK         0.0650 
     75 H75        32.5039  -45.8177  -54.8009 H         1 UNK         0.0650 
     76 H76        30.4976  -44.9286  -51.8813 H         1 UNK         0.1397 
     77 H77        28.2152  -41.9338  -53.9308 H         1 UNK         0.1363 
     78 H78        31.6604  -43.6604  -55.8075 H         1 UNK         0.1355 
     79 H79        29.1716  -40.8895  -55.9247 H         1 UNK         0.0707 
     80 H80        30.6940  -41.4500  -56.5604 H         1 UNK         0.0707 
     81 H81        27.1245  -42.5300  -55.9083 H         1 UNK         0.1034 
     82 H82        26.6169  -41.7659  -57.3875 H         1 UNK         0.1034 
     83 H83        26.9886  -44.7618  -57.0054 H         1 UNK         0.0482 
     84 H84        23.0123  -44.1807  -56.8806 H         1 UNK         0.3460 
     85 H85        23.9099  -44.0643  -58.3731 H         1 UNK         0.3460 
     86 H86        26.3692  -43.1985  -59.3583 H         1 UNK         0.2989 
     87 H87        25.3472  -46.5280  -58.1232 H         1 UNK         0.0559 
     88 H88        26.3210  -47.8155  -60.7215 H         1 UNK         0.0848 
     89 H89        24.6469  -47.4706  -60.3091 H         1 UNK         0.0848 
     90 H90        25.5529  -48.6476  -59.3719 H         1 UNK         0.0848 
     91 H91        27.3013  -47.0905  -57.2979 H         1 UNK         0.3144 
     92 H92        30.5907  -47.6404  -58.5437 H         1 UNK         0.0727 
     93 H93        29.3152  -45.8925  -56.3644 H         1 UNK         0.0790 
     94 H94        30.3982  -45.3300  -57.6269 H         1 UNK         0.0790 
     95 H95        30.9849  -46.4428  -56.4087 H         1 UNK         0.0790 
     96 H96        29.2686  -48.3913  -56.1075 H         1 UNK         0.3215 
     97 H97        28.1936  -51.6264  -57.1946 H         1 UNK         0.0863 
     98 H98        29.4523  -52.2315  -55.1048 H         1 UNK         0.0808 
     99 H99        30.4146  -50.7640  -55.2695 H         1 UNK         0.0808 
    100 H100       30.5076  -52.0161  -56.4917 H         1 UNK         0.0808 
    101 H101       28.0297  -49.9362  -54.8003 H         1 UNK         0.3118 
    102 H102       24.8256  -48.6908  -55.5221 H         1 UNK         0.0546 
    103 H103       25.3596  -51.0098  -53.5848 H         1 UNK         0.0828 
    104 H104       24.1217  -50.9866  -54.8324 H         1 UNK         0.0828 
    105 H105       24.0206  -49.8646  -53.4872 H         1 UNK         0.0828 
    106 H106       26.3288  -48.7800  -53.0887 H         1 UNK         0.3005 
    107 H107       28.5084  -46.0731  -53.8057 H         1 UNK         0.1257 
    108 H108       25.9830  -46.2126  -52.0807 H         1 UNK         0.0775 
    109 H109       26.4993  -44.8838  -53.0843 H         1 UNK         0.0775 
    110 H110       27.3779  -42.7802  -51.8833 H         1 UNK         0.0840 
    111 H111       28.7460  -42.8194  -50.7977 H         1 UNK         0.0840 
    112 H112       28.2242  -47.6580  -51.4821 H         1 UNK         0.2987 
    113 H113       30.1900  -49.0311  -51.0130 H         1 UNK         0.0785 
    114 H114       27.9254  -50.1607  -51.2180 H         1 UNK         0.0798 
    115 H115       29.1774  -51.3417  -50.9021 H         1 UNK         0.0798 
    116 H116       28.5389  -51.1570  -52.5320 H         1 UNK         0.0798 
    117 H117       31.2296  -49.9462  -53.4866 H         1 UNK         0.3079 
    118 H118       34.0208  -51.5451  -52.0596 H         1 UNK         0.0794 
    119 H119       32.5938  -53.5849  -52.2894 H         1 UNK         0.0786 
    120 H120       33.6676  -53.4089  -53.6660 H         1 UNK         0.0786 
    121 H121       31.9599  -52.9899  -53.8169 H         1 UNK         0.0786 
    122 H122       33.2909  -51.1348  -54.7888 H         1 UNK         0.3032 
    123 H123       34.9016  -49.3578  -55.8008 H         1 UNK         0.1094 
    124 H124       32.9463  -48.0187  -56.8353 H         1 UNK         0.0794 
    125 H125       32.4590  -49.5828  -56.2382 H         1 UNK         0.0794 
    126 H126       32.1085  -48.1488  -55.2910 H         1 UNK         0.0794 
    127 H127       34.9151  -47.3042  -53.9120 H         1 UNK         0.3016 
@<TRIPOS>BOND
     1    1    2 1    
     2    1   67 1    
     3    1   68 1    
     4    1   69 1    
     5    2    3 2    
     6    2    4 am   BACKBONE|DICT|INTERRES
     7    4    5 1    
     8    4   70 1    
     9    5    6 1    
    10    5   65 1    
    11    5   71 1    
    12    6    7 1    
    13    6   72 1    
    14    6   73 1    
    15    7    8 1    
    16    8    9 1    
    17    8   74 1    
    18    8   75 1    
    19    9   10 ar   
    20    9   14 ar   
    21   10   11 ar   
    22   10   76 1    
    23   11   12 ar   
    24   11   48 1    
    25   12   13 ar   
    26   12   77 1    
    27   13   14 ar   
    28   13   15 1    
    29   14   78 1    
    30   15   16 1    
    31   15   79 1    
    32   15   80 1    
    33   16   17 1    
    34   17   18 1    
    35   17   81 1    
    36   17   82 1    
    37   18   19 1    
    38   18   22 1    
    39   18   83 1    
    40   19   20 am   BACKBONE|DICT|INTERRES
    41   19   21 2    
    42   20   84 1    
    43   20   85 1    
    44   22   23 am   BACKBONE|DICT|INTERRES
    45   22   86 1    
    46   23   24 2    
    47   23   25 1    
    48   25   26 1    
    49   25   27 1    
    50   25   87 1    
    51   26   88 1    
    52   26   89 1    
    53   26   90 1    
    54   27   28 am   BACKBONE|DICT|INTERRES
    55   27   91 1    
    56   28   29 2    
    57   28   30 1    
    58   30   31 1    
    59   30   32 1    
    60   30   92 1    
    61   31   93 1    
    62   31   94 1    
    63   31   95 1    
    64   32   33 am   BACKBONE|DICT|INTERRES
    65   32   96 1    
    66   33   34 2    
    67   33   35 1    
    68   35   36 1    
    69   35   37 1    
    70   35   97 1    
    71   36   98 1    
    72   36   99 1    
    73   36  100 1    
    74   37   38 am   BACKBONE|DICT|INTERRES
    75   37  101 1    
    76   38   39 2    
    77   38   40 1    
    78   40   41 1    
    79   40   42 1    
    80   40  102 1    
    81   41  103 1    
    82   41  104 1    
    83   41  105 1    
    84   42   43 am   BACKBONE|DICT|INTERRES
    85   42  106 1    
    86   43   44 2    
    87   43   45 1    
    88   45   46 1    
    89   45   49 1    
    90   45  107 1    
    91   46   47 1    
    92   46  108 1    
    93   46  109 1    
    94   47   48 1    
    95   48  110 1    
    96   48  111 1    
    97   49   50 am   BACKBONE|DICT|INTERRES
    98   49  112 1    
    99   50   51 2    
   100   50   52 1    
   101   52   53 1    
   102   52   54 1    
   103   52  113 1    
   104   53  114 1    
   105   53  115 1    
   106   53  116 1    
   107   54   55 am   BACKBONE|DICT|INTERRES
   108   54  117 1    
   109   55   56 2    
   110   55   57 1    
   111   57   58 1    
   112   57   59 1    
   113   57  118 1    
   114   58  119 1    
   115   58  120 1    
   116   58  121 1    
   117   59   60 am   BACKBONE|DICT|INTERRES
   118   59  122 1    
   119   60   61 2    
   120   60   62 1    
   121   62   63 1    
   122   62   64 1    
   123   62  123 1    
   124   63  124 1    
   125   63  125 1    
   126   63  126 1    
   127   64   65 am   BACKBONE|DICT|INTERRES
   128   64  127 1    
   129   65   66 2    
@<TRIPOS>SUBSTRUCTURE
     1 UNK         1 GROUP             0       ****    0 ROOT    
