@<TRIPOS>MOLECULE
3R134
127   129    1
SMALL
USER_CHARGES


@<TRIPOS>ATOM
      1 CA         38.4631  -43.9357  -51.6630 C.3       0 UNK        -0.1968 
      2 C          38.0085  -45.2091  -52.3607 C.2       0 UNK         0.4852 
      3 O          38.5676  -46.2772  -52.1079 O.2       0 UNK        -0.5359 
      4 N          36.9996  -45.1035  -53.2366 N.am      1 UNK        -0.4300 
      5 CA         36.4105  -46.2221  -53.9848 C.3       1 UNK         0.0863 
      6 C6         35.6522  -45.7323  -55.2431 C.3       11 UNK        -0.0953 
      7 S7         34.3431  -44.5032  -54.9060 S.3       11 UNK        -0.2369 
      8 C8         32.8744  -45.5268  -55.1906 C.3       11 UNK         0.0226 
      9 C9         31.5894  -44.7506  -54.9719 C.ar      11 UNK        -0.0699 
     10 C10        31.0188  -44.7032  -53.7000 C.ar      11 UNK        -0.0804 
     11 C11        29.7658  -44.1157  -53.5126 C.ar      11 UNK        -0.0871 
     12 C12        29.1124  -43.5191  -54.5938 C.ar      11 UNK        -0.1008 
     13 C13        29.6911  -43.5237  -55.8698 C.ar      11 UNK        -0.0735 
     14 C14        30.9313  -44.1473  -56.0474 C.ar      11 UNK        -0.0945 
     15 C15        28.9868  -42.9483  -57.0984 C.3       11 UNK         0.0169 
     16 S16        27.5774  -41.8360  -56.7635 S.3       11 UNK        -0.2669 
     17 C17        26.7560  -41.8612  -58.3936 C.3       11 UNK        -0.0850 
     18 CA         25.4291  -42.6688  -58.4110 C.3       10 UNK         0.0855 
     19 C          24.8137  -42.6411  -59.8421 C.2       10 UNK         0.5543 
     20 N          24.8321  -43.7361  -60.5946 N.am      10 UNK        -0.7343 
     21 O          24.3149  -41.6049  -60.2739 O.2       10 UNK        -0.5027 
     22 N          25.5800  -44.0217  -57.8461 N.am      10 UNK        -0.4495 
     23 C          24.5629  -44.8349  -57.5303 C.2       10 UNK         0.4903 
     24 O          23.3845  -44.4744  -57.5379 O.2       10 UNK        -0.4860 
     25 CA         24.9026  -46.2926  -57.1439 C.3       9 UNK         0.0227 
     26 CB         23.8204  -47.2827  -57.6222 C.3       9 UNK        -0.1964 
     27 N          26.2289  -46.7740  -57.5603 N.am      9 UNK        -0.4231 
     28 C          26.7461  -46.7907  -58.8002 C.2       9 UNK         0.5014 
     29 O          26.1917  -46.3023  -59.7866 O.2       9 UNK        -0.5270 
     30 CA         28.1237  -47.4510  -58.9663 C.3       8 UNK         0.0284 
     31 CB         29.2475  -46.5187  -58.4863 C.3       8 UNK        -0.1977 
     32 N          28.2274  -48.7323  -58.2690 N.am      8 UNK        -0.4342 
     33 C          27.6213  -49.8630  -58.6563 C.2       8 UNK         0.5039 
     34 O          26.8789  -49.9470  -59.6354 O.2       8 UNK        -0.5547 
     35 CA         27.9045  -51.1175  -57.8179 C.3       7 UNK         0.0281 
     36 CB         29.2994  -51.6851  -58.1326 C.3       7 UNK        -0.1963 
     37 N          27.7994  -50.8378  -56.3868 N.am      7 UNK        -0.4444 
     38 C          26.6542  -50.8710  -55.6930 C.2       7 UNK         0.5104 
     39 O          25.5668  -51.1856  -56.1777 O.2       7 UNK        -0.5100 
     40 CA         26.7286  -50.5021  -54.1999 C.3       6 UNK         0.0396 
     41 CB         26.8624  -51.7700  -53.3417 C.3       6 UNK        -0.1801 
     42 N          27.8227  -49.5854  -53.8705 N.am      6 UNK        -0.4747 
     43 C          27.8845  -48.3034  -54.2605 C.2       6 UNK         0.5012 
     44 O          27.0412  -47.7612  -54.9746 O.2       6 UNK        -0.5003 
     45 CA         29.1367  -47.5149  -53.8285 C.3       5 UNK         0.0782 
     46 C46        29.0055  -47.0324  -52.3566 C.3       11 UNK        -0.0868 
     47 S47        27.8915  -45.5998  -52.1509 S.3       11 UNK        -0.2515 
     48 C48        29.0724  -44.2102  -52.1644 C.3       11 UNK         0.0199 
     49 N          30.3877  -48.2609  -54.0378 N.am      5 UNK        -0.4607 
     50 C          30.7580  -48.8913  -55.1658 C.2       4 UNK         0.5031 
     51 O          30.1130  -48.8372  -56.2118 O.2       4 UNK        -0.5119 
     52 CA         32.0170  -49.7835  -55.1345 C.3       4 UNK         0.0263 
     53 CB         33.1282  -49.2176  -56.0317 C.3       4 UNK        -0.1967 
     54 N          32.5496  -50.0337  -53.7929 N.am      4 UNK        -0.4237 
     55 C          31.9046  -50.7059  -52.8275 C.2       3 UNK         0.4908 
     56 O          30.8266  -51.2769  -53.0018 O.2       3 UNK        -0.5102 
     57 CA         32.5254  -50.7046  -51.4183 C.3       3 UNK         0.0241 
     58 CB         33.1802  -52.0639  -51.1234 C.3       3 UNK        -0.1971 
     59 N          33.4998  -49.6380  -51.1527 N.am      3 UNK        -0.4139 
     60 C          33.3029  -48.3154  -51.2696 C.2       2 UNK         0.5016 
     61 O          32.2669  -47.8122  -51.7054 O.2       2 UNK        -0.5319 
     62 CA         34.4603  -47.3927  -50.8392 C.3       2 UNK         0.0286 
     63 CB         35.5594  -48.1077  -50.0200 C.3       2 UNK        -0.1963 
     64 N          35.0801  -46.6666  -51.9549 N.am      2 UNK        -0.4790 
     65 C          35.5644  -47.1717  -53.1024 C.2       1 UNK         0.5024 
     66 O          35.4039  -48.3398  -53.4621 O.2       1 UNK        -0.4888 
     67 H67        39.5140  -43.7447  -51.8787 H         1 UNK         0.0892 
     68 H68        37.8882  -43.0668  -51.9833 H         1 UNK         0.0892 
     69 H69        38.3495  -44.0384  -50.5841 H         1 UNK         0.0892 
     70 H70        36.5808  -44.2006  -53.4131 H         1 UNK         0.3107 
     71 H71        37.2427  -46.8312  -54.3451 H         1 UNK         0.0773 
     72 H72        35.2450  -46.5779  -55.7998 H         1 UNK         0.0680 
     73 H73        36.3632  -45.2625  -55.9244 H         1 UNK         0.0680 
     74 H74        32.8999  -46.3808  -54.5122 H         1 UNK         0.0650 
     75 H75        32.8996  -45.9299  -56.2043 H         1 UNK         0.0650 
     76 H76        31.5208  -45.1863  -52.8722 H         1 UNK         0.1397 
     77 H77        28.1325  -43.0921  -54.4349 H         1 UNK         0.1363 
     78 H78        31.3721  -44.1930  -57.0341 H         1 UNK         0.1355 
     79 H79        28.6301  -43.7860  -57.6952 H         1 UNK         0.0707 
     80 H80        29.7088  -42.4097  -57.7143 H         1 UNK         0.0707 
     81 H81        26.5620  -40.8245  -58.6763 H         1 UNK         0.1034 
     82 H82        27.4475  -42.2439  -59.1470 H         1 UNK         0.1034 
     83 H83        24.7235  -42.1406  -57.7667 H         1 UNK         0.0482 
     84 H84        24.4305  -43.7079  -61.5180 H         1 UNK         0.3460 
     85 H85        25.2543  -44.5941  -60.2530 H         1 UNK         0.3460 
     86 H86        26.5166  -44.3901  -57.8060 H         1 UNK         0.2989 
     87 H87        24.9083  -46.3140  -56.0534 H         1 UNK         0.0559 
     88 H88        23.7265  -47.2803  -58.7087 H         1 UNK         0.0848 
     89 H89        22.8425  -47.0326  -57.2090 H         1 UNK         0.0848 
     90 H90        24.0501  -48.3013  -57.3082 H         1 UNK         0.0848 
     91 H91        26.7691  -47.1907  -56.8055 H         1 UNK         0.3144 
     92 H92        28.2753  -47.6373  -60.0318 H         1 UNK         0.0727 
     93 H93        29.1480  -46.2726  -57.4281 H         1 UNK         0.0790 
     94 H94        29.2455  -45.5866  -59.0517 H         1 UNK         0.0790 
     95 H95        30.2272  -46.9759  -58.6269 H         1 UNK         0.0790 
     96 H96        28.8600  -48.7664  -57.4693 H         1 UNK         0.3215 
     97 H97        27.1672  -51.8764  -58.0903 H         1 UNK         0.0863 
     98 H98        29.4867  -52.6044  -57.5775 H         1 UNK         0.0808 
     99 H99        30.0948  -50.9798  -57.8899 H         1 UNK         0.0808 
    100 H100       29.3903  -51.9238  -59.1931 H         1 UNK         0.0808 
    101 H101       28.6340  -50.5089  -55.9208 H         1 UNK         0.3118 
    102 H102       25.7893  -50.0107  -53.9376 H         1 UNK         0.0546 
    103 H103       26.0527  -52.4708  -53.5503 H         1 UNK         0.0828 
    104 H104       26.8196  -51.5360  -52.2779 H         1 UNK         0.0828 
    105 H105       27.8021  -52.2900  -53.5336 H         1 UNK         0.0828 
    106 H106       28.5874  -49.9630  -53.3260 H         1 UNK         0.3005 
    107 H107       29.1924  -46.6472  -54.4875 H         1 UNK         0.1257 
    108 H108       29.9781  -46.7464  -51.9601 H         1 UNK         0.0775 
    109 H109       28.6643  -47.8390  -51.7048 H         1 UNK         0.0775 
    110 H110       28.5372  -43.2824  -51.9568 H         1 UNK         0.0840 
    111 H111       29.7985  -44.3331  -51.3591 H         1 UNK         0.0840 
    112 H112       31.0067  -48.3135  -53.2348 H         1 UNK         0.2987 
    113 H113       31.7156  -50.7470  -55.5508 H         1 UNK         0.0785 
    114 H114       33.5623  -48.3114  -55.6151 H         1 UNK         0.0798 
    115 H115       32.7510  -48.9761  -57.0266 H         1 UNK         0.0798 
    116 H116       33.9349  -49.9396  -56.1597 H         1 UNK         0.0798 
    117 H117       33.4268  -49.5838  -53.5598 H         1 UNK         0.3079 
    118 H118       31.7019  -50.5633  -50.7154 H         1 UNK         0.0794 
    119 H119       34.0388  -52.2463  -51.7711 H         1 UNK         0.0786 
    120 H120       32.4746  -52.8813  -51.2799 H         1 UNK         0.0786 
    121 H121       33.5188  -52.1271  -50.0890 H         1 UNK         0.0786 
    122 H122       34.4030  -49.9396  -50.8171 H         1 UNK         0.3032 
    123 H123       34.0075  -46.6397  -50.1918 H         1 UNK         0.1094 
    124 H124       36.2872  -47.3902  -49.6401 H         1 UNK         0.0794 
    125 H125       35.1412  -48.6207  -49.1525 H         1 UNK         0.0794 
    126 H126       36.1084  -48.8396  -50.6140 H         1 UNK         0.0794 
    127 H127       35.2287  -45.6802  -51.7965 H         1 UNK         0.3016 
@<TRIPOS>BOND
     1    1    2 1    
     2    1   67 1    
     3    1   68 1    
     4    1   69 1    
     5    2    3 2    
     6    2    4 am   BACKBONE|DICT|INTERRES
     7    4    5 1    
     8    4   70 1    
     9    5    6 1    
    10    5   65 1    
    11    5   71 1    
    12    6    7 1    
    13    6   72 1    
    14    6   73 1    
    15    7    8 1    
    16    8    9 1    
    17    8   74 1    
    18    8   75 1    
    19    9   10 ar   
    20    9   14 ar   
    21   10   11 ar   
    22   10   76 1    
    23   11   12 ar   
    24   11   48 1    
    25   12   13 ar   
    26   12   77 1    
    27   13   14 ar   
    28   13   15 1    
    29   14   78 1    
    30   15   16 1    
    31   15   79 1    
    32   15   80 1    
    33   16   17 1    
    34   17   18 1    
    35   17   81 1    
    36   17   82 1    
    37   18   19 1    
    38   18   22 1    
    39   18   83 1    
    40   19   20 am   BACKBONE|DICT|INTERRES
    41   19   21 2    
    42   20   84 1    
    43   20   85 1    
    44   22   23 am   BACKBONE|DICT|INTERRES
    45   22   86 1    
    46   23   24 2    
    47   23   25 1    
    48   25   26 1    
    49   25   27 1    
    50   25   87 1    
    51   26   88 1    
    52   26   89 1    
    53   26   90 1    
    54   27   28 am   BACKBONE|DICT|INTERRES
    55   27   91 1    
    56   28   29 2    
    57   28   30 1    
    58   30   31 1    
    59   30   32 1    
    60   30   92 1    
    61   31   93 1    
    62   31   94 1    
    63   31   95 1    
    64   32   33 am   BACKBONE|DICT|INTERRES
    65   32   96 1    
    66   33   34 2    
    67   33   35 1    
    68   35   36 1    
    69   35   37 1    
    70   35   97 1    
    71   36   98 1    
    72   36   99 1    
    73   36  100 1    
    74   37   38 am   BACKBONE|DICT|INTERRES
    75   37  101 1    
    76   38   39 2    
    77   38   40 1    
    78   40   41 1    
    79   40   42 1    
    80   40  102 1    
    81   41  103 1    
    82   41  104 1    
    83   41  105 1    
    84   42   43 am   BACKBONE|DICT|INTERRES
    85   42  106 1    
    86   43   44 2    
    87   43   45 1    
    88   45   46 1    
    89   45   49 1    
    90   45  107 1    
    91   46   47 1    
    92   46  108 1    
    93   46  109 1    
    94   47   48 1    
    95   48  110 1    
    96   48  111 1    
    97   49   50 am   BACKBONE|DICT|INTERRES
    98   49  112 1    
    99   50   51 2    
   100   50   52 1    
   101   52   53 1    
   102   52   54 1    
   103   52  113 1    
   104   53  114 1    
   105   53  115 1    
   106   53  116 1    
   107   54   55 am   BACKBONE|DICT|INTERRES
   108   54  117 1    
   109   55   56 2    
   110   55   57 1    
   111   57   58 1    
   112   57   59 1    
   113   57  118 1    
   114   58  119 1    
   115   58  120 1    
   116   58  121 1    
   117   59   60 am   BACKBONE|DICT|INTERRES
   118   59  122 1    
   119   60   61 2    
   120   60   62 1    
   121   62   63 1    
   122   62   64 1    
   123   62  123 1    
   124   63  124 1    
   125   63  125 1    
   126   63  126 1    
   127   64   65 am   BACKBONE|DICT|INTERRES
   128   64  127 1    
   129   65   66 2    
@<TRIPOS>SUBSTRUCTURE
     1 UNK         1 GROUP             0       ****    0 ROOT    
