@<TRIPOS>MOLECULE
3R134
127   129    1
SMALL
USER_CHARGES


@<TRIPOS>ATOM
      1 CA         37.8348  -50.0449  -55.1117 C.3       0 UNK        -0.1968 
      2 C          36.3665  -49.7667  -54.8281 C.2       0 UNK         0.4852 
      3 O          35.7862  -50.3958  -53.9420 O.2       0 UNK        -0.5359 
      4 N          35.7651  -48.8186  -55.5625 N.am      1 UNK        -0.4300 
      5 CA         34.3569  -48.4108  -55.4475 C.3       1 UNK         0.0863 
      6 C6         33.9546  -47.3862  -56.5373 C.3       11 UNK        -0.0953 
      7 S7         34.9443  -45.8516  -56.4980 S.3       11 UNK        -0.2369 
      8 C8         33.8121  -44.6686  -57.2953 C.3       11 UNK         0.0226 
      9 C9         32.5620  -44.3265  -56.4851 C.ar      11 UNK        -0.0699 
     10 C10        32.6152  -44.0966  -55.1031 C.ar      11 UNK        -0.0804 
     11 C11        31.4714  -43.6940  -54.4029 C.ar      11 UNK        -0.0871 
     12 C12        30.2690  -43.5180  -55.0963 C.ar      11 UNK        -0.1008 
     13 C13        30.2016  -43.7470  -56.4729 C.ar      11 UNK        -0.0735 
     14 C14        31.3474  -44.1588  -57.1574 C.ar      11 UNK        -0.0945 
     15 C15        28.9078  -43.4936  -57.2315 C.3       11 UNK         0.0169 
     16 S16        27.7150  -44.8435  -56.9937 S.3       11 UNK        -0.2669 
     17 C17        26.3104  -43.9354  -56.2532 C.3       11 UNK        -0.0850 
     18 CA         25.0564  -44.8191  -56.0099 C.3       10 UNK         0.0855 
     19 C          23.8987  -43.9971  -55.3732 C.2       10 UNK         0.5543 
     20 N          22.7189  -43.9290  -55.9781 N.am      10 UNK        -0.7343 
     21 O          24.0729  -43.4123  -54.3071 O.2       10 UNK        -0.5027 
     22 N          24.6873  -45.5625  -57.2226 N.am      10 UNK        -0.4495 
     23 C          24.0478  -46.7342  -57.2698 C.2       10 UNK         0.4903 
     24 O          23.5879  -47.3048  -56.2813 O.2       10 UNK        -0.4860 
     25 CA         23.9438  -47.4169  -58.6478 C.3       9 UNK         0.0227 
     26 CB         22.6545  -47.0022  -59.3834 C.3       9 UNK        -0.1964 
     27 N          25.1419  -47.2513  -59.4902 N.am      9 UNK        -0.4231 
     28 C          25.6162  -46.1396  -60.0758 C.2       9 UNK         0.5014 
     29 O          25.0509  -45.0460  -60.0280 O.2       9 UNK        -0.5270 
     30 CA         26.9983  -46.2610  -60.7341 C.3       8 UNK         0.0284 
     31 CB         27.5631  -44.9068  -61.2046 C.3       8 UNK        -0.1977 
     32 N          27.9174  -46.8527  -59.7641 N.am      8 UNK        -0.4342 
     33 C          28.6629  -47.9445  -59.9627 C.2       8 UNK         0.5039 
     34 O          28.7347  -48.5434  -61.0364 O.2       8 UNK        -0.5547 
     35 CA         29.4450  -48.4783  -58.7497 C.3       7 UNK         0.0281 
     36 CB         30.8800  -47.9274  -58.7450 C.3       7 UNK        -0.1963 
     37 N          28.8149  -48.1929  -57.4551 N.am      7 UNK        -0.4444 
     38 C          27.6390  -48.6863  -57.0354 C.2       7 UNK         0.5104 
     39 O          26.9140  -49.3961  -57.7334 O.2       7 UNK        -0.5100 
     40 CA         27.2047  -48.3314  -55.6012 C.3       6 UNK         0.0396 
     41 CB         26.4616  -49.4877  -54.9083 C.3       6 UNK        -0.1801 
     42 N          28.3476  -47.9233  -54.7808 N.am      6 UNK        -0.4747 
     43 C          28.3662  -46.8874  -53.9304 C.2       6 UNK         0.5012 
     44 O          27.3887  -46.1802  -53.6830 O.2       6 UNK        -0.5003 
     45 CA         29.7209  -46.6251  -53.2391 C.3       5 UNK         0.0782 
     46 C46        29.6962  -45.4374  -52.2420 C.3       11 UNK        -0.0868 
     47 S47        31.3899  -44.8779  -51.8678 S.3       11 UNK        -0.2515 
     48 C48        31.5438  -43.3895  -52.9100 C.3       11 UNK         0.0199 
     49 N          30.2856  -47.8574  -52.6701 N.am      5 UNK        -0.4607 
     50 C          29.7164  -48.6574  -51.7564 C.2       4 UNK         0.5031 
     51 O          28.6468  -48.4136  -51.1981 O.2       4 UNK        -0.5119 
     52 CA         30.4387  -49.9695  -51.4232 C.3       4 UNK         0.0263 
     53 CB         30.1408  -51.0351  -52.4929 C.3       4 UNK        -0.1967 
     54 N          31.8889  -49.8050  -51.2854 N.am      4 UNK        -0.4237 
     55 C          32.6199  -50.3576  -50.3045 C.2       3 UNK         0.4908 
     56 O          32.1384  -51.0382  -49.3972 O.2       3 UNK        -0.5102 
     57 CA         34.1481  -50.1517  -50.3272 C.3       3 UNK         0.0241 
     58 CB         34.8545  -51.4410  -50.7774 C.3       3 UNK        -0.1971 
     59 N          34.5836  -49.0489  -51.1840 N.am      3 UNK        -0.4139 
     60 C          34.4075  -47.7499  -50.9020 C.2       2 UNK         0.5016 
     61 O          33.9410  -47.3429  -49.8377 O.2       2 UNK        -0.5319 
     62 CA         34.7988  -46.7283  -51.9872 C.3       2 UNK         0.0286 
     63 CB         36.1111  -46.0209  -51.6133 C.3       2 UNK        -0.1963 
     64 N          34.9281  -47.2789  -53.3402 N.am      2 UNK        -0.4790 
     65 C          33.9721  -47.9083  -54.0410 C.2       1 UNK         0.5024 
     66 O          32.8443  -48.1416  -53.6069 O.2       1 UNK        -0.4888 
     67 H67        38.4298  -49.8647  -54.2168 H         1 UNK         0.0892 
     68 H68        37.9682  -51.0855  -55.4059 H         1 UNK         0.0892 
     69 H69        38.2233  -49.4138  -55.9108 H         1 UNK         0.0892 
     70 H70        36.2981  -48.3239  -56.2641 H         1 UNK         0.3107 
     71 H71        33.7637  -49.3121  -55.6169 H         1 UNK         0.0773 
     72 H72        34.0656  -47.8345  -57.5257 H         1 UNK         0.0680 
     73 H73        32.8966  -47.1348  -56.4427 H         1 UNK         0.0680 
     74 H74        33.5391  -45.0671  -58.2738 H         1 UNK         0.0650 
     75 H75        34.3594  -43.7441  -57.4824 H         1 UNK         0.0650 
     76 H76        33.5520  -44.2072  -54.5744 H         1 UNK         0.1397 
     77 H77        29.3843  -43.1857  -54.5706 H         1 UNK         0.1363 
     78 H78        31.3008  -44.3133  -58.2268 H         1 UNK         0.1355 
     79 H79        29.1036  -43.3866  -58.2995 H         1 UNK         0.0707 
     80 H80        28.4820  -42.5424  -56.9088 H         1 UNK         0.0707 
     81 H81        26.6502  -43.5006  -55.3110 H         1 UNK         0.1034 
     82 H82        26.0573  -43.0984  -56.9068 H         1 UNK         0.1034 
     83 H83        25.3252  -45.5557  -55.2526 H         1 UNK         0.0482 
     84 H84        22.5690  -44.4100  -56.8503 H         1 UNK         0.3460 
     85 H85        21.9743  -43.3965  -55.5566 H         1 UNK         0.3460 
     86 H86        24.9752  -45.1528  -58.1059 H         1 UNK         0.2989 
     87 H87        23.8771  -48.4889  -58.4547 H         1 UNK         0.0559 
     88 H88        21.7741  -47.2469  -58.7877 H         1 UNK         0.0848 
     89 H89        22.5559  -47.5235  -60.3354 H         1 UNK         0.0848 
     90 H90        22.6194  -45.9309  -59.5823 H         1 UNK         0.0848 
     91 H91        25.7292  -48.0746  -59.5392 H         1 UNK         0.3144 
     92 H92        26.8797  -46.9086  -61.6052 H         1 UNK         0.0727 
     93 H93        27.6718  -44.2055  -60.3762 H         1 UNK         0.0790 
     94 H94        26.9065  -44.4441  -61.9425 H         1 UNK         0.0790 
     95 H95        28.5408  -45.0277  -61.6711 H         1 UNK         0.0790 
     96 H96        27.9146  -46.4352  -58.8411 H         1 UNK         0.3215 
     97 H97        29.4980  -49.5640  -58.8572 H         1 UNK         0.0863 
     98 H98        31.4823  -48.4101  -57.9761 H         1 UNK         0.0808 
     99 H99        30.9019  -46.8514  -58.5691 H         1 UNK         0.0808 
    100 H100       31.3736  -48.1117  -59.7004 H         1 UNK         0.0808 
    101 H101       29.3093  -47.5649  -56.8389 H         1 UNK         0.3118 
    102 H102       26.5126  -47.4959  -55.7016 H         1 UNK         0.0546 
    103 H103       27.0879  -50.3764  -54.8253 H         1 UNK         0.0828 
    104 H104       25.5645  -49.7660  -55.4630 H         1 UNK         0.0828 
    105 H105       26.1430  -49.2061  -53.9046 H         1 UNK         0.0828 
    106 H106       29.1830  -48.4850  -54.8730 H         1 UNK         0.3005 
    107 H107       30.3891  -46.3432  -54.0550 H         1 UNK         0.1257 
    108 H108       29.1308  -44.5922  -52.6363 H         1 UNK         0.0775 
    109 H109       29.2002  -45.7199  -51.3124 H         1 UNK         0.0775 
    110 H110       30.7714  -42.6720  -52.6283 H         1 UNK         0.0840 
    111 H111       32.4954  -42.9055  -52.6852 H         1 UNK         0.0840 
    112 H112       31.1964  -48.1078  -53.0502 H         1 UNK         0.2987 
    113 H113       30.0140  -50.3161  -50.4783 H         1 UNK         0.0785 
    114 H114       29.0661  -51.1600  -52.6340 H         1 UNK         0.0798 
    115 H115       30.5440  -52.0060  -52.2044 H         1 UNK         0.0798 
    116 H116       30.5703  -50.7691  -53.4594 H         1 UNK         0.0798 
    117 H117       32.3568  -49.2379  -51.9840 H         1 UNK         0.3079 
    118 H118       34.4612  -49.9314  -49.3043 H         1 UNK         0.0794 
    119 H119       35.9388  -51.3313  -50.7495 H         1 UNK         0.0786 
    120 H120       34.5725  -51.7205  -51.7935 H         1 UNK         0.0786 
    121 H121       34.5970  -52.2772  -50.1258 H         1 UNK         0.0786 
    122 H122       34.9795  -49.3006  -52.0823 H         1 UNK         0.3032 
    123 H123       34.0068  -45.9801  -52.0178 H         1 UNK         0.1094 
    124 H124       36.9524  -46.7149  -51.5957 H         1 UNK         0.0794 
    125 H125       36.3465  -45.2221  -52.3169 H         1 UNK         0.0794 
    126 H126       36.0422  -45.5666  -50.6237 H         1 UNK         0.0794 
    127 H127       35.8207  -47.1476  -53.7940 H         1 UNK         0.3016 
@<TRIPOS>BOND
     1    1    2 1    
     2    1   67 1    
     3    1   68 1    
     4    1   69 1    
     5    2    3 2    
     6    2    4 am   BACKBONE|DICT|INTERRES
     7    4    5 1    
     8    4   70 1    
     9    5    6 1    
    10    5   65 1    
    11    5   71 1    
    12    6    7 1    
    13    6   72 1    
    14    6   73 1    
    15    7    8 1    
    16    8    9 1    
    17    8   74 1    
    18    8   75 1    
    19    9   10 ar   
    20    9   14 ar   
    21   10   11 ar   
    22   10   76 1    
    23   11   12 ar   
    24   11   48 1    
    25   12   13 ar   
    26   12   77 1    
    27   13   14 ar   
    28   13   15 1    
    29   14   78 1    
    30   15   16 1    
    31   15   79 1    
    32   15   80 1    
    33   16   17 1    
    34   17   18 1    
    35   17   81 1    
    36   17   82 1    
    37   18   19 1    
    38   18   22 1    
    39   18   83 1    
    40   19   20 am   BACKBONE|DICT|INTERRES
    41   19   21 2    
    42   20   84 1    
    43   20   85 1    
    44   22   23 am   BACKBONE|DICT|INTERRES
    45   22   86 1    
    46   23   24 2    
    47   23   25 1    
    48   25   26 1    
    49   25   27 1    
    50   25   87 1    
    51   26   88 1    
    52   26   89 1    
    53   26   90 1    
    54   27   28 am   BACKBONE|DICT|INTERRES
    55   27   91 1    
    56   28   29 2    
    57   28   30 1    
    58   30   31 1    
    59   30   32 1    
    60   30   92 1    
    61   31   93 1    
    62   31   94 1    
    63   31   95 1    
    64   32   33 am   BACKBONE|DICT|INTERRES
    65   32   96 1    
    66   33   34 2    
    67   33   35 1    
    68   35   36 1    
    69   35   37 1    
    70   35   97 1    
    71   36   98 1    
    72   36   99 1    
    73   36  100 1    
    74   37   38 am   BACKBONE|DICT|INTERRES
    75   37  101 1    
    76   38   39 2    
    77   38   40 1    
    78   40   41 1    
    79   40   42 1    
    80   40  102 1    
    81   41  103 1    
    82   41  104 1    
    83   41  105 1    
    84   42   43 am   BACKBONE|DICT|INTERRES
    85   42  106 1    
    86   43   44 2    
    87   43   45 1    
    88   45   46 1    
    89   45   49 1    
    90   45  107 1    
    91   46   47 1    
    92   46  108 1    
    93   46  109 1    
    94   47   48 1    
    95   48  110 1    
    96   48  111 1    
    97   49   50 am   BACKBONE|DICT|INTERRES
    98   49  112 1    
    99   50   51 2    
   100   50   52 1    
   101   52   53 1    
   102   52   54 1    
   103   52  113 1    
   104   53  114 1    
   105   53  115 1    
   106   53  116 1    
   107   54   55 am   BACKBONE|DICT|INTERRES
   108   54  117 1    
   109   55   56 2    
   110   55   57 1    
   111   57   58 1    
   112   57   59 1    
   113   57  118 1    
   114   58  119 1    
   115   58  120 1    
   116   58  121 1    
   117   59   60 am   BACKBONE|DICT|INTERRES
   118   59  122 1    
   119   60   61 2    
   120   60   62 1    
   121   62   63 1    
   122   62   64 1    
   123   62  123 1    
   124   63  124 1    
   125   63  125 1    
   126   63  126 1    
   127   64   65 am   BACKBONE|DICT|INTERRES
   128   64  127 1    
   129   65   66 2    
@<TRIPOS>SUBSTRUCTURE
     1 UNK         1 GROUP             0       ****    0 ROOT    
