@<TRIPOS>MOLECULE
3R134
127   129    1
SMALL
USER_CHARGES


@<TRIPOS>ATOM
      1 CA         36.5016  -46.3004  -47.5052 C.3       0 UNK        -0.1968 
      2 C          36.0025  -46.1738  -48.9372 C.2       0 UNK         0.4852 
      3 O          36.6676  -46.6472  -49.8593 O.2       0 UNK        -0.5359 
      4 N          34.8382  -45.5377  -49.1289 N.am      1 UNK        -0.4300 
      5 CA         34.1954  -45.3422  -50.4357 C.3       1 UNK         0.0863 
      6 C6         33.1859  -44.1613  -50.3905 C.3       11 UNK        -0.0953 
      7 S7         33.0828  -43.2503  -51.9679 S.3       11 UNK        -0.2369 
      8 C8         31.5128  -43.8839  -52.6348 C.3       11 UNK         0.0226 
      9 C9         31.2632  -43.4048  -54.0567 C.ar      11 UNK        -0.0699 
     10 C10        32.1014  -43.8194  -55.0982 C.ar      11 UNK        -0.0804 
     11 C11        31.8708  -43.3873  -56.4084 C.ar      11 UNK        -0.0871 
     12 C12        30.7921  -42.5409  -56.6724 C.ar      11 UNK        -0.1008 
     13 C13        29.9294  -42.1481  -55.6469 C.ar      11 UNK        -0.0735 
     14 C14        30.1754  -42.5728  -54.3383 C.ar      11 UNK        -0.0945 
     15 C15        28.7176  -41.2855  -55.9598 C.3       11 UNK         0.0169 
     16 S16        27.2490  -42.3100  -56.2869 S.3       11 UNK        -0.2669 
     17 C17        27.7060  -43.1018  -57.8699 C.3       11 UNK        -0.0850 
     18 CA         26.4952  -43.7912  -58.5492 C.3       10 UNK         0.0855 
     19 C          26.8015  -44.2279  -60.0128 C.2       10 UNK         0.5543 
     20 N          26.3642  -45.3961  -60.4701 N.am      10 UNK        -0.7343 
     21 O          27.4307  -43.4840  -60.7612 O.2       10 UNK        -0.5027 
     22 N          25.9840  -44.8910  -57.7188 N.am      10 UNK        -0.4495 
     23 C          24.6945  -45.1203  -57.4504 C.2       10 UNK         0.4903 
     24 O          23.7718  -44.3905  -57.8181 O.2       10 UNK        -0.4860 
     25 CA         24.3964  -46.4022  -56.6498 C.3       9 UNK         0.0227 
     26 CB         22.8951  -46.7590  -56.6166 C.3       9 UNK        -0.1964 
     27 N          25.1920  -47.5521  -57.1004 N.am      9 UNK        -0.4231 
     28 C          25.2182  -48.0890  -58.3322 C.2       9 UNK         0.5014 
     29 O          24.5712  -47.6398  -59.2796 O.2       9 UNK        -0.5270 
     30 CA         26.1354  -49.3031  -58.5872 C.3       8 UNK         0.0284 
     31 CB         27.1749  -48.9701  -59.6722 C.3       8 UNK        -0.1977 
     32 N          26.8369  -49.7917  -57.3983 N.am      8 UNK        -0.4342 
     33 C          26.2775  -50.4498  -56.3744 C.2       8 UNK         0.5039 
     34 O          25.0990  -50.8052  -56.3499 O.2       8 UNK        -0.5547 
     35 CA         27.1713  -50.7049  -55.1470 C.3       7 UNK         0.0281 
     36 CB         27.9060  -52.0467  -55.2840 C.3       7 UNK        -0.1963 
     37 N          28.1415  -49.6301  -54.8984 N.am      7 UNK        -0.4444 
     38 C          27.8187  -48.3564  -54.6218 C.2       7 UNK         0.5104 
     39 O          26.6622  -47.9413  -54.5548 O.2       7 UNK        -0.5100 
     40 CA         28.9823  -47.3745  -54.4218 C.3       6 UNK         0.0396 
     41 CB         29.5863  -47.5363  -53.0170 C.3       6 UNK        -0.1801 
     42 N          30.0186  -47.5641  -55.4367 N.am      6 UNK        -0.4747 
     43 C          29.9071  -47.1771  -56.7173 C.2       6 UNK         0.5012 
     44 O          28.9293  -46.5772  -57.1691 O.2       6 UNK        -0.5003 
     45 CA         31.0651  -47.5845  -57.6579 C.3       5 UNK         0.0782 
     46 C46        32.2479  -46.5862  -57.5890 C.3       11 UNK        -0.0868 
     47 S47        31.9838  -45.0890  -58.5908 S.3       11 UNK        -0.2515 
     48 C48        32.7773  -43.8227  -57.5491 C.3       11 UNK         0.0199 
     49 N          31.5405  -48.9482  -57.3992 N.am      5 UNK        -0.4607 
     50 C          30.8126  -50.0667  -57.5134 C.2       4 UNK         0.5031 
     51 O          29.6449  -50.0866  -57.8953 O.2       4 UNK        -0.5119 
     52 CA         31.4877  -51.3810  -57.0760 C.3       4 UNK         0.0263 
     53 CB         32.2074  -52.0333  -58.2666 C.3       4 UNK        -0.1967 
     54 N          32.4278  -51.2264  -55.9578 N.am      4 UNK        -0.4237 
     55 C          32.1236  -50.6974  -54.7641 C.2       3 UNK         0.4908 
     56 O          30.9933  -50.2967  -54.4630 O.2       3 UNK        -0.5102 
     57 CA         33.2801  -50.5357  -53.7666 C.3       3 UNK         0.0241 
     58 CB         34.4055  -49.6593  -54.3624 C.3       3 UNK        -0.1971 
     59 N          32.7347  -49.9092  -52.5673 N.am      3 UNK        -0.4139 
     60 C          33.3538  -49.6999  -51.4026 C.2       2 UNK         0.5016 
     61 O          34.4856  -50.1068  -51.1301 O.2       2 UNK        -0.5319 
     62 CA         32.5721  -48.8682  -50.3689 C.3       2 UNK         0.0286 
     63 CB         32.3825  -49.6505  -49.0584 C.3       2 UNK        -0.1963 
     64 N          33.2213  -47.5860  -50.0764 N.am      2 UNK        -0.4790 
     65 C          33.5366  -46.6354  -50.9730 C.2       1 UNK         0.5024 
     66 O          33.3135  -46.7387  -52.1793 O.2       1 UNK        -0.4888 
     67 H67        36.6062  -47.3512  -47.2361 H         1 UNK         0.0892 
     68 H68        37.4765  -45.8242  -47.4045 H         1 UNK         0.0892 
     69 H69        35.8219  -45.8340  -46.7922 H         1 UNK         0.0892 
     70 H70        34.3427  -45.1606  -48.3329 H         1 UNK         0.3107 
     71 H71        34.9898  -45.0834  -51.1398 H         1 UNK         0.0773 
     72 H72        32.1939  -44.4838  -50.0672 H         1 UNK         0.0680 
     73 H73        33.5053  -43.4259  -49.6501 H         1 UNK         0.0680 
     74 H74        31.5269  -44.9707  -52.6325 H         1 UNK         0.0650 
     75 H75        30.6988  -43.5837  -51.9732 H         1 UNK         0.0650 
     76 H76        32.9349  -44.4738  -54.8812 H         1 UNK         0.1397 
     77 H77        30.6078  -42.2125  -57.6863 H         1 UNK         0.1363 
     78 H78        29.5084  -42.2675  -53.5437 H         1 UNK         0.1355 
     79 H79        28.5070  -40.6230  -55.1189 H         1 UNK         0.0707 
     80 H80        28.9151  -40.6385  -56.8160 H         1 UNK         0.0707 
     81 H81        28.1265  -42.3328  -58.5204 H         1 UNK         0.1034 
     82 H82        28.5019  -43.8281  -57.6933 H         1 UNK         0.1034 
     83 H83        25.7189  -43.0307  -58.6505 H         1 UNK         0.0482 
     84 H84        26.5653  -45.6529  -61.4230 H         1 UNK         0.3460 
     85 H85        25.7907  -46.0010  -59.8962 H         1 UNK         0.3460 
     86 H86        26.6785  -45.5537  -57.3988 H         1 UNK         0.2989 
     87 H87        24.7086  -46.1988  -55.6246 H         1 UNK         0.0559 
     88 H88        22.3112  -45.9532  -56.1702 H         1 UNK         0.0848 
     89 H89        22.7141  -47.6556  -56.0238 H         1 UNK         0.0848 
     90 H90        22.4976  -46.9324  -57.6172 H         1 UNK         0.0848 
     91 H91        25.7810  -47.9640  -56.3835 H         1 UNK         0.3144 
     92 H92        25.5003  -50.1092  -58.9597 H         1 UNK         0.0727 
     93 H93        27.8473  -48.1725  -59.3527 H         1 UNK         0.0790 
     94 H94        26.6943  -48.6424  -60.5949 H         1 UNK         0.0790 
     95 H95        27.7819  -49.8409  -59.9202 H         1 UNK         0.0790 
     96 H96        27.8418  -49.6343  -57.3745 H         1 UNK         0.3215 
     97 H97        26.5208  -50.7604  -54.2716 H         1 UNK         0.0863 
     98 H98        28.5750  -52.2276  -54.4423 H         1 UNK         0.0808 
     99 H99        28.4935  -52.0886  -56.2001 H         1 UNK         0.0808 
    100 H100       27.1958  -52.8737  -55.3196 H         1 UNK         0.0808 
    101 H101       29.1255  -49.8848  -54.9032 H         1 UNK         0.3118 
    102 H102       28.5982  -46.3558  -54.5125 H         1 UNK         0.0546 
    103 H103       29.8314  -48.5742  -52.7934 H         1 UNK         0.0828 
    104 H104       28.8814  -47.2021  -52.2549 H         1 UNK         0.0828 
    105 H105       30.4954  -46.9497  -52.9006 H         1 UNK         0.0828 
    106 H106       30.8164  -48.1236  -55.1689 H         1 UNK         0.3005 
    107 H107       30.6638  -47.5847  -58.6743 H         1 UNK         0.1257 
    108 H108       32.4799  -46.3231  -56.5555 H         1 UNK         0.0775 
    109 H109       33.1544  -47.0496  -57.9823 H         1 UNK         0.0775 
    110 H110       33.7318  -44.1951  -57.1733 H         1 UNK         0.0840 
    111 H111       33.0144  -42.9569  -58.1692 H         1 UNK         0.0840 
    112 H112       32.4940  -49.0374  -57.0825 H         1 UNK         0.2987 
    113 H113       30.7023  -52.0607  -56.7444 H         1 UNK         0.0785 
    114 H114       31.5225  -52.1792  -59.1034 H         1 UNK         0.0798 
    115 H115       32.6048  -53.0136  -58.0028 H         1 UNK         0.0798 
    116 H116       33.0347  -51.4198  -58.6261 H         1 UNK         0.0798 
    117 H117       33.3751  -51.5364  -56.1220 H         1 UNK         0.3079 
    118 H118       33.6639  -51.5251  -53.5109 H         1 UNK         0.0794 
    119 H119       35.2288  -49.5308  -53.6599 H         1 UNK         0.0786 
    120 H120       34.0419  -48.6647  -54.6251 H         1 UNK         0.0786 
    121 H121       34.8328  -50.1034  -55.2617 H         1 UNK         0.0786 
    122 H122       31.7821  -49.5924  -52.6983 H         1 UNK         0.3032 
    123 H123       31.5822  -48.6445  -50.7720 H         1 UNK         0.1094 
    124 H124       33.3362  -49.8631  -48.5732 H         1 UNK         0.0794 
    125 H125       31.7609  -49.1002  -48.3518 H         1 UNK         0.0794 
    126 H126       31.8914  -50.6070  -49.2431 H         1 UNK         0.0794 
    127 H127       33.4728  -47.4216  -49.1131 H         1 UNK         0.3016 
@<TRIPOS>BOND
     1    1    2 1    
     2    1   67 1    
     3    1   68 1    
     4    1   69 1    
     5    2    3 2    
     6    2    4 am   BACKBONE|DICT|INTERRES
     7    4    5 1    
     8    4   70 1    
     9    5    6 1    
    10    5   65 1    
    11    5   71 1    
    12    6    7 1    
    13    6   72 1    
    14    6   73 1    
    15    7    8 1    
    16    8    9 1    
    17    8   74 1    
    18    8   75 1    
    19    9   10 ar   
    20    9   14 ar   
    21   10   11 ar   
    22   10   76 1    
    23   11   12 ar   
    24   11   48 1    
    25   12   13 ar   
    26   12   77 1    
    27   13   14 ar   
    28   13   15 1    
    29   14   78 1    
    30   15   16 1    
    31   15   79 1    
    32   15   80 1    
    33   16   17 1    
    34   17   18 1    
    35   17   81 1    
    36   17   82 1    
    37   18   19 1    
    38   18   22 1    
    39   18   83 1    
    40   19   20 am   BACKBONE|DICT|INTERRES
    41   19   21 2    
    42   20   84 1    
    43   20   85 1    
    44   22   23 am   BACKBONE|DICT|INTERRES
    45   22   86 1    
    46   23   24 2    
    47   23   25 1    
    48   25   26 1    
    49   25   27 1    
    50   25   87 1    
    51   26   88 1    
    52   26   89 1    
    53   26   90 1    
    54   27   28 am   BACKBONE|DICT|INTERRES
    55   27   91 1    
    56   28   29 2    
    57   28   30 1    
    58   30   31 1    
    59   30   32 1    
    60   30   92 1    
    61   31   93 1    
    62   31   94 1    
    63   31   95 1    
    64   32   33 am   BACKBONE|DICT|INTERRES
    65   32   96 1    
    66   33   34 2    
    67   33   35 1    
    68   35   36 1    
    69   35   37 1    
    70   35   97 1    
    71   36   98 1    
    72   36   99 1    
    73   36  100 1    
    74   37   38 am   BACKBONE|DICT|INTERRES
    75   37  101 1    
    76   38   39 2    
    77   38   40 1    
    78   40   41 1    
    79   40   42 1    
    80   40  102 1    
    81   41  103 1    
    82   41  104 1    
    83   41  105 1    
    84   42   43 am   BACKBONE|DICT|INTERRES
    85   42  106 1    
    86   43   44 2    
    87   43   45 1    
    88   45   46 1    
    89   45   49 1    
    90   45  107 1    
    91   46   47 1    
    92   46  108 1    
    93   46  109 1    
    94   47   48 1    
    95   48  110 1    
    96   48  111 1    
    97   49   50 am   BACKBONE|DICT|INTERRES
    98   49  112 1    
    99   50   51 2    
   100   50   52 1    
   101   52   53 1    
   102   52   54 1    
   103   52  113 1    
   104   53  114 1    
   105   53  115 1    
   106   53  116 1    
   107   54   55 am   BACKBONE|DICT|INTERRES
   108   54  117 1    
   109   55   56 2    
   110   55   57 1    
   111   57   58 1    
   112   57   59 1    
   113   57  118 1    
   114   58  119 1    
   115   58  120 1    
   116   58  121 1    
   117   59   60 am   BACKBONE|DICT|INTERRES
   118   59  122 1    
   119   60   61 2    
   120   60   62 1    
   121   62   63 1    
   122   62   64 1    
   123   62  123 1    
   124   63  124 1    
   125   63  125 1    
   126   63  126 1    
   127   64   65 am   BACKBONE|DICT|INTERRES
   128   64  127 1    
   129   65   66 2    
@<TRIPOS>SUBSTRUCTURE
     1 UNK         1 GROUP             0       ****    0 ROOT    
