@<TRIPOS>MOLECULE
3R134
127   129    1
SMALL
USER_CHARGES


@<TRIPOS>ATOM
      1 CA         34.6858  -49.6881  -57.6822 C.3       0 UNK        -0.1968 
      2 C          34.1536  -49.1495  -56.3636 C.2       0 UNK         0.4852 
      3 O          33.3965  -49.8428  -55.6789 O.2       0 UNK        -0.5359 
      4 N          34.5457  -47.9208  -55.9935 N.am      1 UNK        -0.4300 
      5 CA         34.1310  -47.2319  -54.7659 C.3       1 UNK         0.0863 
      6 C6         34.2454  -45.6900  -54.8963 C.3       11 UNK        -0.0953 
      7 S7         33.0849  -44.8537  -53.7658 S.3       11 UNK        -0.2369 
      8 C8         33.0221  -43.1614  -54.4415 C.3       11 UNK         0.0226 
      9 C9         31.5913  -42.6456  -54.5442 C.ar      11 UNK        -0.0699 
     10 C10        30.7488  -42.6663  -53.4280 C.ar      11 UNK        -0.0804 
     11 C11        29.4217  -42.2397  -53.5271 C.ar      11 UNK        -0.0871 
     12 C12        28.9548  -41.7269  -54.7427 C.ar      11 UNK        -0.1008 
     13 C13        29.7964  -41.6641  -55.8578 C.ar      11 UNK        -0.0735 
     14 C14        31.1091  -42.1364  -55.7541 C.ar      11 UNK        -0.0945 
     15 C15        29.3087  -41.0499  -57.1644 C.3       11 UNK         0.0169 
     16 S16        28.5230  -42.2697  -58.2666 S.3       11 UNK        -0.2669 
     17 C17        26.8103  -42.3270  -57.6335 C.3       11 UNK        -0.0850 
     18 CA         26.4920  -43.6355  -56.8546 C.3       10 UNK         0.0855 
     19 C          25.1321  -43.5714  -56.0961 C.2       10 UNK         0.5543 
     20 N          24.3454  -44.6403  -56.0395 N.am      10 UNK        -0.7343 
     21 O          24.7981  -42.5428  -55.5138 O.2       10 UNK        -0.5027 
     22 N          26.6942  -44.8693  -57.6322 N.am      10 UNK        -0.4495 
     23 C          26.0757  -45.2209  -58.7682 C.2       10 UNK         0.4903 
     24 O          25.2910  -44.4984  -59.3827 O.2       10 UNK        -0.4860 
     25 CA         26.3515  -46.6410  -59.2982 C.3       9 UNK         0.0227 
     26 CB         27.4626  -46.6105  -60.3587 C.3       9 UNK        -0.1964 
     27 N          26.6919  -47.5971  -58.2356 N.am      9 UNK        -0.4231 
     28 C          25.8188  -48.0205  -57.3061 C.2       9 UNK         0.5014 
     29 O          24.6337  -47.6825  -57.2995 O.2       9 UNK        -0.5270 
     30 CA         26.3313  -48.9021  -56.1516 C.3       8 UNK         0.0284 
     31 CB         25.4673  -50.1622  -55.9342 C.3       8 UNK        -0.1977 
     32 N          27.7652  -49.2045  -56.2070 N.am      8 UNK        -0.4342 
     33 C          28.4193  -50.1119  -56.9457 C.2       8 UNK         0.5039 
     34 O          27.8776  -50.8928  -57.7287 O.2       8 UNK        -0.5547 
     35 CA         29.9540  -50.1196  -56.7738 C.3       7 UNK         0.0281 
     36 CB         30.6848  -50.8957  -57.8897 C.3       7 UNK        -0.1963 
     37 N          30.5110  -48.7680  -56.6149 N.am      7 UNK        -0.4444 
     38 C          30.4102  -47.7544  -57.4883 C.2       7 UNK         0.5104 
     39 O          29.8675  -47.8558  -58.5883 O.2       7 UNK        -0.5100 
     40 CA         30.9384  -46.3849  -57.0124 C.3       6 UNK         0.0396 
     41 CB         30.5499  -45.2355  -57.9596 C.3       6 UNK        -0.1801 
     42 N          30.5453  -46.0650  -55.6332 N.am      6 UNK        -0.4747 
     43 C          29.3096  -46.0946  -55.1094 C.2       6 UNK         0.5012 
     44 O          28.2917  -46.3340  -55.7592 O.2       6 UNK        -0.5003 
     45 CA         29.1996  -45.9198  -53.5801 C.3       5 UNK         0.0782 
     46 C46        28.0007  -45.0065  -53.2039 C.3       11 UNK        -0.0868 
     47 S47        28.3401  -44.0577  -51.6850 S.3       11 UNK        -0.2515 
     48 C48        28.4855  -42.3499  -52.3272 C.3       11 UNK         0.0199 
     49 N          29.0981  -47.2171  -52.8912 N.am      5 UNK        -0.4607 
     50 C          29.9135  -48.2713  -53.0306 C.2       4 UNK         0.5031 
     51 O          30.9102  -48.2842  -53.7583 O.2       4 UNK        -0.5119 
     52 CA         29.5453  -49.5446  -52.2568 C.3       4 UNK         0.0263 
     53 CB         28.2319  -50.1611  -52.7827 C.3       4 UNK        -0.1967 
     54 N          30.6558  -50.4744  -52.4322 N.am      4 UNK        -0.4237 
     55 C          30.8579  -51.6532  -51.8369 C.2       3 UNK         0.4908 
     56 O          30.0958  -52.1525  -51.0086 O.2       3 UNK        -0.5102 
     57 CA         32.1409  -52.4014  -52.2416 C.3       3 UNK         0.0241 
     58 CB         31.8769  -53.2872  -53.4708 C.3       3 UNK        -0.1971 
     59 N          33.2596  -51.4964  -52.5306 N.am      3 UNK        -0.4139 
     60 C          33.9400  -50.8175  -51.5929 C.2       2 UNK         0.5016 
     61 O          33.7260  -50.9177  -50.3844 O.2       2 UNK        -0.5319 
     62 CA         35.0215  -49.8462  -52.0813 C.3       2 UNK         0.0286 
     63 CB         36.3245  -50.5854  -52.4316 C.3       2 UNK        -0.1963 
     64 N          34.5456  -49.0871  -53.2355 N.am      2 UNK        -0.4790 
     65 C          34.8311  -47.8128  -53.5139 C.2       1 UNK         0.5024 
     66 O          35.6117  -47.1284  -52.8499 O.2       1 UNK        -0.4888 
     67 H67        35.1197  -50.6767  -57.5351 H         1 UNK         0.0892 
     68 H68        33.8751  -49.7749  -58.4048 H         1 UNK         0.0892 
     69 H69        35.4531  -49.0413  -58.1070 H         1 UNK         0.0892 
     70 H70        35.2036  -47.4189  -56.5731 H         1 UNK         0.3107 
     71 H71        33.0717  -47.4550  -54.6475 H         1 UNK         0.0773 
     72 H72        33.9891  -45.3856  -55.9122 H         1 UNK         0.0680 
     73 H73        35.2622  -45.3342  -54.7208 H         1 UNK         0.0680 
     74 H74        33.5958  -42.4997  -53.7915 H         1 UNK         0.0650 
     75 H75        33.5087  -43.1322  -55.4173 H         1 UNK         0.0650 
     76 H76        31.1159  -43.0521  -52.4865 H         1 UNK         0.1397 
     77 H77        27.9354  -41.3750  -54.8233 H         1 UNK         0.1363 
     78 H78        31.7588  -42.0967  -56.6177 H         1 UNK         0.1355 
     79 H79        30.1541  -40.6086  -57.6945 H         1 UNK         0.0707 
     80 H80        28.6243  -40.2239  -56.9657 H         1 UNK         0.0707 
     81 H81        26.6428  -41.4545  -57.0006 H         1 UNK         0.1034 
     82 H82        26.1270  -42.2058  -58.4746 H         1 UNK         0.1034 
     83 H83        27.2340  -43.7002  -56.0623 H         1 UNK         0.0482 
     84 H84        23.4758  -44.5838  -55.5337 H         1 UNK         0.3460 
     85 H85        24.5963  -45.4953  -56.5157 H         1 UNK         0.3460 
     86 H86        27.2957  -45.5503  -57.1770 H         1 UNK         0.2989 
     87 H87        25.4391  -46.9961  -59.7820 H         1 UNK         0.0559 
     88 H88        27.6895  -47.6095  -60.7312 H         1 UNK         0.0848 
     89 H89        28.3842  -46.1799  -59.9674 H         1 UNK         0.0848 
     90 H90        27.1637  -46.0040  -61.2145 H         1 UNK         0.0848 
     91 H91        27.6599  -47.8907  -58.1754 H         1 UNK         0.3144 
     92 H92        26.2164  -48.2867  -55.2579 H         1 UNK         0.0727 
     93 H93        25.8375  -50.7606  -55.1018 H         1 UNK         0.0790 
     94 H94        25.4394  -50.7957  -56.8208 H         1 UNK         0.0790 
     95 H95        24.4364  -49.8909  -55.7035 H         1 UNK         0.0790 
     96 H96        28.3348  -48.5455  -55.6920 H         1 UNK         0.3215 
     97 H97        30.1500  -50.6395  -55.8345 H         1 UNK         0.0863 
     98 H98        31.7589  -50.9250  -57.7109 H         1 UNK         0.0808 
     99 H99        30.5171  -50.4522  -58.8715 H         1 UNK         0.0808 
    100 H100       30.3400  -51.9292  -57.9370 H         1 UNK         0.0808 
    101 H101       30.9404  -48.5769  -55.7127 H         1 UNK         0.3118 
    102 H102       32.0258  -46.4628  -57.0169 H         1 UNK         0.0546 
    103 H103       29.4700  -45.1046  -58.0075 H         1 UNK         0.0828 
    104 H104       30.9014  -45.4228  -58.9747 H         1 UNK         0.0828 
    105 H105       30.9860  -44.2915  -57.6372 H         1 UNK         0.0828 
    106 H106       31.3145  -45.8848  -55.0005 H         1 UNK         0.3005 
    107 H107       30.1243  -45.4474  -53.2449 H         1 UNK         0.1257 
    108 H108       27.7625  -44.2987  -53.9958 H         1 UNK         0.0775 
    109 H109       27.0878  -45.5891  -53.0674 H         1 UNK         0.0775 
    110 H110       27.4872  -41.9912  -52.5836 H         1 UNK         0.0840 
    111 H111       28.8487  -41.7004  -51.5297 H         1 UNK         0.0840 
    112 H112       28.3129  -47.3056  -52.2631 H         1 UNK         0.2987 
    113 H113       29.4500  -49.2953  -51.1984 H         1 UNK         0.0785 
    114 H114       27.9164  -51.0043  -52.1685 H         1 UNK         0.0798 
    115 H115       28.3389  -50.5238  -53.8045 H         1 UNK         0.0798 
    116 H116       27.4130  -49.4411  -52.7724 H         1 UNK         0.0798 
    117 H117       31.3531  -50.1204  -53.0772 H         1 UNK         0.3079 
    118 H118       32.4255  -53.0478  -51.4084 H         1 UNK         0.0794 
    119 H119       31.0555  -53.9803  -53.2830 H         1 UNK         0.0786 
    120 H120       32.7523  -53.8860  -53.7232 H         1 UNK         0.0786 
    121 H121       31.6106  -52.6954  -54.3479 H         1 UNK         0.0786 
    122 H122       33.5161  -51.3898  -53.5019 H         1 UNK         0.3032 
    123 H123       35.2246  -49.1563  -51.2584 H         1 UNK         0.1094 
    124 H124       36.1901  -51.2683  -53.2713 H         1 UNK         0.0794 
    125 H125       37.1169  -49.8846  -52.6948 H         1 UNK         0.0794 
    126 H126       36.6803  -51.1727  -51.5839 H         1 UNK         0.0794 
    127 H127       33.9289  -49.5589  -53.8922 H         1 UNK         0.3016 
@<TRIPOS>BOND
     1    1    2 1    
     2    1   67 1    
     3    1   68 1    
     4    1   69 1    
     5    2    3 2    
     6    2    4 am   BACKBONE|DICT|INTERRES
     7    4    5 1    
     8    4   70 1    
     9    5    6 1    
    10    5   65 1    
    11    5   71 1    
    12    6    7 1    
    13    6   72 1    
    14    6   73 1    
    15    7    8 1    
    16    8    9 1    
    17    8   74 1    
    18    8   75 1    
    19    9   10 ar   
    20    9   14 ar   
    21   10   11 ar   
    22   10   76 1    
    23   11   12 ar   
    24   11   48 1    
    25   12   13 ar   
    26   12   77 1    
    27   13   14 ar   
    28   13   15 1    
    29   14   78 1    
    30   15   16 1    
    31   15   79 1    
    32   15   80 1    
    33   16   17 1    
    34   17   18 1    
    35   17   81 1    
    36   17   82 1    
    37   18   19 1    
    38   18   22 1    
    39   18   83 1    
    40   19   20 am   BACKBONE|DICT|INTERRES
    41   19   21 2    
    42   20   84 1    
    43   20   85 1    
    44   22   23 am   BACKBONE|DICT|INTERRES
    45   22   86 1    
    46   23   24 2    
    47   23   25 1    
    48   25   26 1    
    49   25   27 1    
    50   25   87 1    
    51   26   88 1    
    52   26   89 1    
    53   26   90 1    
    54   27   28 am   BACKBONE|DICT|INTERRES
    55   27   91 1    
    56   28   29 2    
    57   28   30 1    
    58   30   31 1    
    59   30   32 1    
    60   30   92 1    
    61   31   93 1    
    62   31   94 1    
    63   31   95 1    
    64   32   33 am   BACKBONE|DICT|INTERRES
    65   32   96 1    
    66   33   34 2    
    67   33   35 1    
    68   35   36 1    
    69   35   37 1    
    70   35   97 1    
    71   36   98 1    
    72   36   99 1    
    73   36  100 1    
    74   37   38 am   BACKBONE|DICT|INTERRES
    75   37  101 1    
    76   38   39 2    
    77   38   40 1    
    78   40   41 1    
    79   40   42 1    
    80   40  102 1    
    81   41  103 1    
    82   41  104 1    
    83   41  105 1    
    84   42   43 am   BACKBONE|DICT|INTERRES
    85   42  106 1    
    86   43   44 2    
    87   43   45 1    
    88   45   46 1    
    89   45   49 1    
    90   45  107 1    
    91   46   47 1    
    92   46  108 1    
    93   46  109 1    
    94   47   48 1    
    95   48  110 1    
    96   48  111 1    
    97   49   50 am   BACKBONE|DICT|INTERRES
    98   49  112 1    
    99   50   51 2    
   100   50   52 1    
   101   52   53 1    
   102   52   54 1    
   103   52  113 1    
   104   53  114 1    
   105   53  115 1    
   106   53  116 1    
   107   54   55 am   BACKBONE|DICT|INTERRES
   108   54  117 1    
   109   55   56 2    
   110   55   57 1    
   111   57   58 1    
   112   57   59 1    
   113   57  118 1    
   114   58  119 1    
   115   58  120 1    
   116   58  121 1    
   117   59   60 am   BACKBONE|DICT|INTERRES
   118   59  122 1    
   119   60   61 2    
   120   60   62 1    
   121   62   63 1    
   122   62   64 1    
   123   62  123 1    
   124   63  124 1    
   125   63  125 1    
   126   63  126 1    
   127   64   65 am   BACKBONE|DICT|INTERRES
   128   64  127 1    
   129   65   66 2    
@<TRIPOS>SUBSTRUCTURE
     1 UNK         1 GROUP             0       ****    0 ROOT    
