@<TRIPOS>MOLECULE
3R134
127   129    1
SMALL
USER_CHARGES


@<TRIPOS>ATOM
      1 CA         35.7406  -43.3712  -48.2383 C.3       0 UNK        -0.1968 
      2 C          35.6689  -44.1188  -49.5619 C.2       0 UNK         0.4852 
      3 O          36.6550  -44.7354  -49.9695 O.2       0 UNK        -0.5359 
      4 N          34.5144  -44.0608  -50.2377 N.am      1 UNK        -0.4300 
      5 CA         34.2436  -44.7521  -51.5028 C.3       1 UNK         0.0863 
      6 C6         32.9673  -44.2158  -52.1958 C.3       11 UNK        -0.0953 
      7 S7         33.0075  -42.4102  -52.4734 S.3       11 UNK        -0.2369 
      8 C8         33.3865  -42.2876  -54.2555 C.3       11 UNK         0.0226 
      9 C9         32.3652  -42.9773  -55.1568 C.ar      11 UNK        -0.0699 
     10 C10        32.8068  -43.7220  -56.2534 C.ar      11 UNK        -0.0804 
     11 C11        31.8957  -44.4005  -57.0687 C.ar      11 UNK        -0.0871 
     12 C12        30.5286  -44.3139  -56.7878 C.ar      11 UNK        -0.1008 
     13 C13        30.0636  -43.5438  -55.7142 C.ar      11 UNK        -0.0735 
     14 C14        30.9918  -42.8786  -54.9081 C.ar      11 UNK        -0.0945 
     15 C15        28.5800  -43.4295  -55.3633 C.3       11 UNK         0.0169 
     16 S16        27.4287  -43.7018  -56.7540 S.3       11 UNK        -0.2669 
     17 C17        25.8352  -43.4223  -55.9108 C.3       11 UNK        -0.0850 
     18 CA         25.1789  -44.7450  -55.4171 C.3       10 UNK         0.0855 
     19 C          24.0099  -44.5046  -54.4116 C.2       10 UNK         0.5543 
     20 N          23.0084  -45.3739  -54.3445 N.am      10 UNK        -0.7343 
     21 O          24.0212  -43.5362  -53.6553 O.2       10 UNK        -0.5027 
     22 N          24.8624  -45.6879  -56.5089 N.am      10 UNK        -0.4495 
     23 C          23.9670  -45.4852  -57.4872 C.2       10 UNK         0.4903 
     24 O          23.3342  -44.4366  -57.6247 O.2       10 UNK        -0.4860 
     25 CA         23.6907  -46.6644  -58.4440 C.3       9 UNK         0.0227 
     26 CB         22.9391  -46.2354  -59.7232 C.3       9 UNK        -0.1964 
     27 N          24.8747  -47.4600  -58.7853 N.am      9 UNK        -0.4231 
     28 C          25.9856  -47.0611  -59.4201 C.2       9 UNK         0.5014 
     29 O          26.1874  -45.9037  -59.7916 O.2       9 UNK        -0.5270 
     30 CA         27.0364  -48.1588  -59.7007 C.3       8 UNK         0.0284 
     31 CB         28.3021  -47.6054  -60.3827 C.3       8 UNK        -0.1977 
     32 N          27.4208  -48.8881  -58.4868 N.am      8 UNK        -0.4342 
     33 C          26.6773  -49.8253  -57.8766 C.2       8 UNK         0.5039 
     34 O          25.5933  -50.2110  -58.3177 O.2       8 UNK        -0.5547 
     35 CA         27.1747  -50.3980  -56.5339 C.3       7 UNK         0.0281 
     36 CB         27.8736  -51.7485  -56.7571 C.3       7 UNK        -0.1963 
     37 N          28.0728  -49.5076  -55.7961 N.am      7 UNK        -0.4444 
     38 C          27.7899  -48.2565  -55.4084 C.2       7 UNK         0.5104 
     39 O          26.6742  -47.7472  -55.5155 O.2       7 UNK        -0.5100 
     40 CA         28.9589  -47.4101  -54.8696 C.3       6 UNK         0.0396 
     41 CB         28.9380  -47.3655  -53.3356 C.3       6 UNK        -0.1801 
     42 N          30.2859  -47.8427  -55.3275 N.am      6 UNK        -0.4747 
     43 C          30.6828  -47.9071  -56.6093 C.2       6 UNK         0.5012 
     44 O          29.9487  -47.6604  -57.5653 O.2       6 UNK        -0.5003 
     45 CA         32.1233  -48.3841  -56.8599 C.3       5 UNK         0.0782 
     46 C46        33.1655  -47.3005  -56.4751 C.3       11 UNK        -0.0868 
     47 S47        33.7643  -46.3391  -57.9040 S.3       11 UNK        -0.2515 
     48 C48        32.3713  -45.2152  -58.2674 C.3       11 UNK         0.0199 
     49 N          32.3437  -49.6388  -56.1422 N.am      5 UNK        -0.4607 
     50 C          31.9696  -50.8444  -56.5919 C.2       4 UNK         0.5031 
     51 O          31.4991  -51.0391  -57.7121 O.2       4 UNK        -0.5119 
     52 CA         32.1351  -52.0384  -55.6333 C.3       4 UNK         0.0263 
     53 CB         33.4370  -52.7954  -55.9409 C.3       4 UNK        -0.1967 
     54 N          32.1228  -51.6565  -54.2186 N.am      4 UNK        -0.4237 
     55 C          31.0592  -51.1600  -53.5703 C.2       3 UNK         0.4908 
     56 O          29.9488  -51.0216  -54.0811 O.2       3 UNK        -0.5102 
     57 CA         31.2923  -50.6832  -52.1265 C.3       3 UNK         0.0241 
     58 CB         31.0951  -51.8426  -51.1371 C.3       3 UNK        -0.1971 
     59 N          32.6112  -50.0726  -51.9165 N.am      3 UNK        -0.4139 
     60 C          33.0578  -48.9809  -52.5533 C.2       2 UNK         0.5016 
     61 O          32.4166  -48.3799  -53.4200 O.2       2 UNK        -0.5319 
     62 CA         34.4876  -48.5279  -52.2214 C.3       2 UNK         0.0286 
     63 CB         35.4822  -49.1230  -53.2316 C.3       2 UNK        -0.1963 
     64 N          34.5980  -47.0680  -52.2400 N.am      2 UNK        -0.4790 
     65 C          34.1207  -46.2726  -51.2743 C.2       1 UNK         0.5024 
     66 O          33.5811  -46.6956  -50.2478 O.2       1 UNK        -0.4888 
     67 H67        35.9545  -44.0658  -47.4265 H         1 UNK         0.0892 
     68 H68        36.5363  -42.6274  -48.2699 H         1 UNK         0.0892 
     69 H69        34.8067  -42.8583  -48.0083 H         1 UNK         0.0892 
     70 H70        33.7355  -43.5476  -49.8511 H         1 UNK         0.3107 
     71 H71        35.0924  -44.5725  -52.1666 H         1 UNK         0.0773 
     72 H72        32.0847  -44.4330  -51.5907 H         1 UNK         0.0680 
     73 H73        32.8083  -44.7299  -53.1454 H         1 UNK         0.0680 
     74 H74        34.3831  -42.7005  -54.4195 H         1 UNK         0.0650 
     75 H75        33.4379  -41.2335  -54.5301 H         1 UNK         0.0650 
     76 H76        33.8650  -43.7884  -56.4665 H         1 UNK         0.1397 
     77 H77        29.8277  -44.8519  -57.4110 H         1 UNK         0.1363 
     78 H78        30.6430  -42.2928  -54.0687 H         1 UNK         0.1355 
     79 H79        28.3862  -42.4363  -54.9549 H         1 UNK         0.0707 
     80 H80        28.3538  -44.1416  -54.5689 H         1 UNK         0.0707 
     81 H81        26.0036  -42.7358  -55.0794 H         1 UNK         0.1034 
     82 H82        25.1691  -42.8914  -56.5918 H         1 UNK         0.1034 
     83 H83        25.9294  -45.2561  -54.8137 H         1 UNK         0.0482 
     84 H84        22.9963  -46.1839  -54.9429 H         1 UNK         0.3460 
     85 H85        22.2618  -45.2191  -53.6855 H         1 UNK         0.3460 
     86 H86        25.3518  -46.5755  -56.4505 H         1 UNK         0.2989 
     87 H87        23.0326  -47.3391  -57.8950 H         1 UNK         0.0559 
     88 H88        21.9825  -45.7711  -59.4802 H         1 UNK         0.0848 
     89 H89        22.7267  -47.0899  -60.3655 H         1 UNK         0.0848 
     90 H90        23.5121  -45.5124  -60.3046 H         1 UNK         0.0848 
     91 H91        24.8411  -48.4438  -58.5265 H         1 UNK         0.3144 
     92 H92        26.5778  -48.8672  -60.3938 H         1 UNK         0.0727 
     93 H93        28.7787  -46.8310  -59.7805 H         1 UNK         0.0790 
     94 H94        28.0610  -47.1611  -61.3491 H         1 UNK         0.0790 
     95 H95        29.0362  -48.3914  -60.5610 H         1 UNK         0.0790 
     96 H96        28.2832  -48.5808  -58.0431 H         1 UNK         0.3215 
     97 H97        26.2959  -50.5635  -55.9075 H         1 UNK         0.0863 
     98 H98        28.1452  -52.2171  -55.8111 H         1 UNK         0.0808 
     99 H99        28.7820  -51.6380  -57.3504 H         1 UNK         0.0808 
    100 H100       27.2206  -52.4443  -57.2858 H         1 UNK         0.0808 
    101 H101       28.9880  -49.8755  -55.5613 H         1 UNK         0.3118 
    102 H102       28.8111  -46.3960  -55.2427 H         1 UNK         0.0546 
    103 H103       29.0645  -48.3589  -52.9059 H         1 UNK         0.0828 
    104 H104       27.9892  -46.9700  -52.9706 H         1 UNK         0.0828 
    105 H105       29.7294  -46.7251  -52.9451 H         1 UNK         0.0828 
    106 H106       30.9678  -48.0618  -54.6039 H         1 UNK         0.3005 
    107 H107       32.2135  -48.5919  -57.9291 H         1 UNK         0.1257 
    108 H108       32.8119  -46.6311  -55.6880 H         1 UNK         0.0775 
    109 H109       34.0534  -47.7743  -56.0554 H         1 UNK         0.0775 
    110 H110       32.6802  -44.5247  -59.0531 H         1 UNK         0.0840 
    111 H111       31.5528  -45.8006  -58.6884 H         1 UNK         0.0840 
    112 H112       32.6590  -49.5477  -55.1853 H         1 UNK         0.2987 
    113 H113       31.2943  -52.7139  -55.8063 H         1 UNK         0.0785 
    114 H114       33.4633  -53.1181  -56.9828 H         1 UNK         0.0798 
    115 H115       33.5318  -53.6900  -55.3251 H         1 UNK         0.0798 
    116 H116       34.3169  -52.1735  -55.7705 H         1 UNK         0.0798 
    117 H117       32.9934  -51.7430  -53.7151 H         1 UNK         0.3079 
    118 H118       30.5420  -49.9213  -51.9087 H         1 UNK         0.0794 
    119 H119       31.1603  -51.4988  -50.1045 H         1 UNK         0.0786 
    120 H120       31.8387  -52.6281  -51.2780 H         1 UNK         0.0786 
    121 H121       30.1118  -52.2985  -51.2623 H         1 UNK         0.0786 
    122 H122       33.2050  -50.5119  -51.2272 H         1 UNK         0.3032 
    123 H123       34.7505  -48.8833  -51.2220 H         1 UNK         0.1094 
    124 H124       35.2712  -48.7982  -54.2506 H         1 UNK         0.0794 
    125 H125       36.5066  -48.8347  -52.9947 H         1 UNK         0.0794 
    126 H126       35.4461  -50.2132  -53.2233 H         1 UNK         0.0794 
    127 H127       34.9882  -46.6531  -53.0737 H         1 UNK         0.3016 
@<TRIPOS>BOND
     1    1    2 1    
     2    1   67 1    
     3    1   68 1    
     4    1   69 1    
     5    2    3 2    
     6    2    4 am   BACKBONE|DICT|INTERRES
     7    4    5 1    
     8    4   70 1    
     9    5    6 1    
    10    5   65 1    
    11    5   71 1    
    12    6    7 1    
    13    6   72 1    
    14    6   73 1    
    15    7    8 1    
    16    8    9 1    
    17    8   74 1    
    18    8   75 1    
    19    9   10 ar   
    20    9   14 ar   
    21   10   11 ar   
    22   10   76 1    
    23   11   12 ar   
    24   11   48 1    
    25   12   13 ar   
    26   12   77 1    
    27   13   14 ar   
    28   13   15 1    
    29   14   78 1    
    30   15   16 1    
    31   15   79 1    
    32   15   80 1    
    33   16   17 1    
    34   17   18 1    
    35   17   81 1    
    36   17   82 1    
    37   18   19 1    
    38   18   22 1    
    39   18   83 1    
    40   19   20 am   BACKBONE|DICT|INTERRES
    41   19   21 2    
    42   20   84 1    
    43   20   85 1    
    44   22   23 am   BACKBONE|DICT|INTERRES
    45   22   86 1    
    46   23   24 2    
    47   23   25 1    
    48   25   26 1    
    49   25   27 1    
    50   25   87 1    
    51   26   88 1    
    52   26   89 1    
    53   26   90 1    
    54   27   28 am   BACKBONE|DICT|INTERRES
    55   27   91 1    
    56   28   29 2    
    57   28   30 1    
    58   30   31 1    
    59   30   32 1    
    60   30   92 1    
    61   31   93 1    
    62   31   94 1    
    63   31   95 1    
    64   32   33 am   BACKBONE|DICT|INTERRES
    65   32   96 1    
    66   33   34 2    
    67   33   35 1    
    68   35   36 1    
    69   35   37 1    
    70   35   97 1    
    71   36   98 1    
    72   36   99 1    
    73   36  100 1    
    74   37   38 am   BACKBONE|DICT|INTERRES
    75   37  101 1    
    76   38   39 2    
    77   38   40 1    
    78   40   41 1    
    79   40   42 1    
    80   40  102 1    
    81   41  103 1    
    82   41  104 1    
    83   41  105 1    
    84   42   43 am   BACKBONE|DICT|INTERRES
    85   42  106 1    
    86   43   44 2    
    87   43   45 1    
    88   45   46 1    
    89   45   49 1    
    90   45  107 1    
    91   46   47 1    
    92   46  108 1    
    93   46  109 1    
    94   47   48 1    
    95   48  110 1    
    96   48  111 1    
    97   49   50 am   BACKBONE|DICT|INTERRES
    98   49  112 1    
    99   50   51 2    
   100   50   52 1    
   101   52   53 1    
   102   52   54 1    
   103   52  113 1    
   104   53  114 1    
   105   53  115 1    
   106   53  116 1    
   107   54   55 am   BACKBONE|DICT|INTERRES
   108   54  117 1    
   109   55   56 2    
   110   55   57 1    
   111   57   58 1    
   112   57   59 1    
   113   57  118 1    
   114   58  119 1    
   115   58  120 1    
   116   58  121 1    
   117   59   60 am   BACKBONE|DICT|INTERRES
   118   59  122 1    
   119   60   61 2    
   120   60   62 1    
   121   62   63 1    
   122   62   64 1    
   123   62  123 1    
   124   63  124 1    
   125   63  125 1    
   126   63  126 1    
   127   64   65 am   BACKBONE|DICT|INTERRES
   128   64  127 1    
   129   65   66 2    
@<TRIPOS>SUBSTRUCTURE
     1 UNK         1 GROUP             0       ****    0 ROOT    
