@<TRIPOS>MOLECULE
3R134
127   129    1
SMALL
USER_CHARGES


@<TRIPOS>ATOM
      1 CA         36.2648  -44.3863  -51.8255 C.3       0 UNK        -0.1968 
      2 C          36.4300  -44.4648  -53.3362 C.2       0 UNK         0.4852 
      3 O          37.5091  -44.8145  -53.8161 O.2       0 UNK        -0.5359 
      4 N          35.3679  -44.1383  -54.0845 N.am      1 UNK        -0.4300 
      5 CA         35.3023  -44.2070  -55.5497 C.3       1 UNK         0.0863 
      6 C6         34.0693  -43.4463  -56.1082 C.3       11 UNK        -0.0953 
      7 S7         32.4607  -44.0453  -55.4755 S.3       11 UNK        -0.2369 
      8 C8         32.1347  -42.8649  -54.1313 C.3       11 UNK         0.0226 
      9 C9         30.9910  -43.3496  -53.2561 C.ar      11 UNK        -0.0699 
     10 C10        31.2095  -44.3415  -52.2944 C.ar      11 UNK        -0.0804 
     11 C11        30.1558  -44.7994  -51.4984 C.ar      11 UNK        -0.0871 
     12 C12        28.8786  -44.2568  -51.6704 C.ar      11 UNK        -0.1008 
     13 C13        28.6440  -43.2707  -52.6325 C.ar      11 UNK        -0.0735 
     14 C14        29.7115  -42.8114  -53.4124 C.ar      11 UNK        -0.0945 
     15 C15        27.2318  -42.7153  -52.8048 C.3       11 UNK         0.0169 
     16 S16        26.7557  -42.3879  -54.5363 S.3       11 UNK        -0.2669 
     17 C17        26.9970  -44.0235  -55.3123 C.3       11 UNK        -0.0850 
     18 CA         27.1745  -43.9310  -56.8521 C.3       10 UNK         0.0855 
     19 C          28.6342  -43.5874  -57.2832 C.2       10 UNK         0.5543 
     20 N          29.2865  -44.3721  -58.1343 N.am      10 UNK        -0.7343 
     21 O          29.1787  -42.5693  -56.8665 O.2       10 UNK        -0.5027 
     22 N          26.6310  -45.1290  -57.5067 N.am      10 UNK        -0.4495 
     23 C          26.0209  -45.1310  -58.6992 C.2       10 UNK         0.4903 
     24 O          25.7707  -44.1098  -59.3419 O.2       10 UNK        -0.4860 
     25 CA         25.6221  -46.5074  -59.2671 C.3       9 UNK         0.0227 
     26 CB         25.3904  -46.4821  -60.7932 C.3       9 UNK        -0.1964 
     27 N          26.5538  -47.5814  -58.9015 N.am      9 UNK        -0.4231 
     28 C          27.8641  -47.6592  -59.1901 C.2       9 UNK         0.5014 
     29 O          28.4718  -46.7854  -59.8100 O.2       9 UNK        -0.5270 
     30 CA         28.6364  -48.8941  -58.6812 C.3       8 UNK         0.0284 
     31 CB         30.0397  -48.5113  -58.1718 C.3       8 UNK        -0.1977 
     32 N          27.9004  -49.5916  -57.6214 N.am      8 UNK        -0.4342 
     33 C          27.0816  -50.6380  -57.8116 C.2       8 UNK         0.5039 
     34 O          26.9875  -51.2406  -58.8808 O.2       8 UNK        -0.5547 
     35 CA         26.1624  -51.0511  -56.6442 C.3       7 UNK         0.0281 
     36 CB         26.5483  -52.4200  -56.0590 C.3       7 UNK        -0.1963 
     37 N          26.0977  -50.0483  -55.5755 N.am      7 UNK        -0.4444 
     38 C          25.3968  -48.9077  -55.6643 C.2       7 UNK         0.5104 
     39 O          24.7110  -48.6098  -56.6418 O.2       7 UNK        -0.5100 
     40 CA         25.5269  -47.8991  -54.5087 C.3       6 UNK         0.0396 
     41 CB         24.4276  -48.1339  -53.4624 C.3       6 UNK        -0.1801 
     42 N          26.8374  -47.9208  -53.8526 N.am      6 UNK        -0.4747 
     43 C          28.0038  -47.6347  -54.4504 C.2       6 UNK         0.5012 
     44 O          28.0816  -47.2884  -55.6308 O.2       6 UNK        -0.5003 
     45 CA         29.2958  -47.8023  -53.6169 C.3       5 UNK         0.0782 
     46 C46        29.0534  -47.7733  -52.0807 C.3       11 UNK        -0.0868 
     47 S47        30.6163  -47.5313  -51.1703 S.3       11 UNK        -0.2515 
     48 C48        30.3949  -45.8736  -50.4451 C.3       11 UNK         0.0199 
     49 N          30.0566  -48.9941  -54.0276 N.am      5 UNK        -0.4607 
     50 C          29.5993  -50.2569  -54.0859 C.2       4 UNK         0.5031 
     51 O          28.4250  -50.5679  -53.8830 O.2       4 UNK        -0.5119 
     52 CA         30.6052  -51.3797  -54.4080 C.3       4 UNK         0.0263 
     53 CB         30.5598  -51.7682  -55.8944 C.3       4 UNK        -0.1967 
     54 N          31.9851  -51.0527  -54.0576 N.am      4 UNK        -0.4237 
     55 C          32.4688  -50.9424  -52.8134 C.2       3 UNK         0.4908 
     56 O          31.8221  -51.2056  -51.7993 O.2       3 UNK        -0.5102 
     57 CA         33.9253  -50.4554  -52.6787 C.3       3 UNK         0.0241 
     58 CB         34.8574  -51.6318  -52.3437 C.3       3 UNK        -0.1971 
     59 N          34.4406  -49.7547  -53.8649 N.am      3 UNK        -0.4139 
     60 C          33.9714  -48.5848  -54.3183 C.2       2 UNK         0.5016 
     61 O          33.0224  -47.9814  -53.8109 O.2       2 UNK        -0.5319 
     62 CA         34.6338  -48.0027  -55.5688 C.3       2 UNK         0.0286 
     63 CB         33.8288  -48.3685  -56.8309 C.3       2 UNK        -0.1963 
     64 N          34.6643  -46.5604  -55.3782 N.am      2 UNK        -0.4790 
     65 C          35.3785  -45.6620  -56.0633 C.2       1 UNK         0.5024 
     66 O          36.0948  -45.9398  -57.0263 O.2       1 UNK        -0.4888 
     67 H67        35.2668  -44.0548  -51.5391 H         1 UNK         0.0892 
     68 H68        36.4373  -45.3651  -51.3787 H         1 UNK         0.0892 
     69 H69        36.9873  -43.6874  -51.4050 H         1 UNK         0.0892 
     70 H70        34.5114  -43.8622  -53.6298 H         1 UNK         0.3107 
     71 H71        36.1913  -43.6995  -55.9309 H         1 UNK         0.0773 
     72 H72        34.0497  -43.5115  -57.1977 H         1 UNK         0.0680 
     73 H73        34.1626  -42.3822  -55.8854 H         1 UNK         0.0680 
     74 H74        31.9045  -41.8894  -54.5629 H         1 UNK         0.0650 
     75 H75        33.0256  -42.7282  -53.5187 H         1 UNK         0.0650 
     76 H76        32.1957  -44.7681  -52.1726 H         1 UNK         0.1397 
     77 H77        28.0613  -44.6077  -51.0549 H         1 UNK         0.1363 
     78 H78        29.5439  -42.0473  -54.1592 H         1 UNK         0.1355 
     79 H79        27.1525  -41.7861  -52.2393 H         1 UNK         0.0707 
     80 H80        26.4987  -43.4014  -52.3774 H         1 UNK         0.0707 
     81 H81        27.8387  -44.5507  -54.8611 H         1 UNK         0.1034 
     82 H82        26.1128  -44.6121  -55.0651 H         1 UNK         0.1034 
     83 H83        26.5742  -43.0842  -57.1903 H         1 UNK         0.0482 
     84 H84        30.2263  -44.1241  -58.3969 H         1 UNK         0.3460 
     85 H85        28.8486  -45.1867  -58.5467 H         1 UNK         0.3460 
     86 H86        26.8579  -46.0119  -57.0668 H         1 UNK         0.2989 
     87 H87        24.6714  -46.7606  -58.7961 H         1 UNK         0.0559 
     88 H88        24.5960  -45.7832  -61.0581 H         1 UNK         0.0848 
     89 H89        25.0934  -47.4622  -61.1663 H         1 UNK         0.0848 
     90 H90        26.2863  -46.1745  -61.3336 H         1 UNK         0.0848 
     91 H91        26.1444  -48.3235  -58.3481 H         1 UNK         0.3144 
     92 H92        28.7666  -49.5550  -59.5404 H         1 UNK         0.0727 
     93 H93        29.9985  -47.8634  -57.2964 H         1 UNK         0.0790 
     94 H94        30.6088  -47.9827  -58.9376 H         1 UNK         0.0790 
     95 H95        30.6186  -49.3940  -57.9136 H         1 UNK         0.0790 
     96 H96        27.8929  -49.1246  -56.7218 H         1 UNK         0.3215 
     97 H97        25.1615  -51.1572  -57.0692 H         1 UNK         0.0863 
     98 H98        25.7843  -52.7781  -55.3690 H         1 UNK         0.0808 
     99 H99        27.4901  -52.3893  -55.5157 H         1 UNK         0.0808 
    100 H100       26.6478  -53.1700  -56.8450 H         1 UNK         0.0808 
    101 H101       26.6989  -50.2009  -54.7690 H         1 UNK         0.3118 
    102 H102       25.3844  -46.9028  -54.9308 H         1 UNK         0.0546 
    103 H103       24.5280  -49.1075  -52.9810 H         1 UNK         0.0828 
    104 H104       23.4385  -48.0983  -53.9215 H         1 UNK         0.0828 
    105 H105       24.4486  -47.3698  -52.6852 H         1 UNK         0.0828 
    106 H106       26.8561  -48.2461  -52.8967 H         1 UNK         0.3005 
    107 H107       29.9137  -46.9388  -53.8731 H         1 UNK         0.1257 
    108 H108       28.3571  -46.9822  -51.8019 H         1 UNK         0.0775 
    109 H109       28.6030  -48.7061  -51.7371 H         1 UNK         0.0775 
    110 H110       29.5714  -45.9049  -49.7299 H         1 UNK         0.0840 
    111 H111       31.2857  -45.6208  -49.8681 H         1 UNK         0.0840 
    112 H112       31.0469  -48.8312  -54.1679 H         1 UNK         0.2987 
    113 H113       30.3015  -52.2496  -53.8215 H         1 UNK         0.0785 
    114 H114       29.5398  -51.8530  -56.2649 H         1 UNK         0.0798 
    115 H115       31.0424  -52.7315  -56.0604 H         1 UNK         0.0798 
    116 H116       31.0707  -51.0358  -56.5158 H         1 UNK         0.0798 
    117 H117       32.6077  -50.8392  -54.8218 H         1 UNK         0.3079 
    118 H118       33.9478  -49.7516  -51.8436 H         1 UNK         0.0794 
    119 H119       35.8751  -51.2910  -52.1521 H         1 UNK         0.0786 
    120 H120       34.8928  -52.3625  -53.1529 H         1 UNK         0.0786 
    121 H121       34.5201  -52.1548  -51.4475 H         1 UNK         0.0786 
    122 H122       35.2158  -50.1912  -54.3441 H         1 UNK         0.3032 
    123 H123       35.6575  -48.3742  -55.6530 H         1 UNK         0.1094 
    124 H124       32.8075  -47.9880  -56.7792 H         1 UNK         0.0794 
    125 H125       34.2892  -47.9616  -57.7312 H         1 UNK         0.0794 
    126 H126       33.7706  -49.4498  -56.9609 H         1 UNK         0.0794 
    127 H127       34.0819  -46.2434  -54.6119 H         1 UNK         0.3016 
@<TRIPOS>BOND
     1    1    2 1    
     2    1   67 1    
     3    1   68 1    
     4    1   69 1    
     5    2    3 2    
     6    2    4 am   BACKBONE|DICT|INTERRES
     7    4    5 1    
     8    4   70 1    
     9    5    6 1    
    10    5   65 1    
    11    5   71 1    
    12    6    7 1    
    13    6   72 1    
    14    6   73 1    
    15    7    8 1    
    16    8    9 1    
    17    8   74 1    
    18    8   75 1    
    19    9   10 ar   
    20    9   14 ar   
    21   10   11 ar   
    22   10   76 1    
    23   11   12 ar   
    24   11   48 1    
    25   12   13 ar   
    26   12   77 1    
    27   13   14 ar   
    28   13   15 1    
    29   14   78 1    
    30   15   16 1    
    31   15   79 1    
    32   15   80 1    
    33   16   17 1    
    34   17   18 1    
    35   17   81 1    
    36   17   82 1    
    37   18   19 1    
    38   18   22 1    
    39   18   83 1    
    40   19   20 am   BACKBONE|DICT|INTERRES
    41   19   21 2    
    42   20   84 1    
    43   20   85 1    
    44   22   23 am   BACKBONE|DICT|INTERRES
    45   22   86 1    
    46   23   24 2    
    47   23   25 1    
    48   25   26 1    
    49   25   27 1    
    50   25   87 1    
    51   26   88 1    
    52   26   89 1    
    53   26   90 1    
    54   27   28 am   BACKBONE|DICT|INTERRES
    55   27   91 1    
    56   28   29 2    
    57   28   30 1    
    58   30   31 1    
    59   30   32 1    
    60   30   92 1    
    61   31   93 1    
    62   31   94 1    
    63   31   95 1    
    64   32   33 am   BACKBONE|DICT|INTERRES
    65   32   96 1    
    66   33   34 2    
    67   33   35 1    
    68   35   36 1    
    69   35   37 1    
    70   35   97 1    
    71   36   98 1    
    72   36   99 1    
    73   36  100 1    
    74   37   38 am   BACKBONE|DICT|INTERRES
    75   37  101 1    
    76   38   39 2    
    77   38   40 1    
    78   40   41 1    
    79   40   42 1    
    80   40  102 1    
    81   41  103 1    
    82   41  104 1    
    83   41  105 1    
    84   42   43 am   BACKBONE|DICT|INTERRES
    85   42  106 1    
    86   43   44 2    
    87   43   45 1    
    88   45   46 1    
    89   45   49 1    
    90   45  107 1    
    91   46   47 1    
    92   46  108 1    
    93   46  109 1    
    94   47   48 1    
    95   48  110 1    
    96   48  111 1    
    97   49   50 am   BACKBONE|DICT|INTERRES
    98   49  112 1    
    99   50   51 2    
   100   50   52 1    
   101   52   53 1    
   102   52   54 1    
   103   52  113 1    
   104   53  114 1    
   105   53  115 1    
   106   53  116 1    
   107   54   55 am   BACKBONE|DICT|INTERRES
   108   54  117 1    
   109   55   56 2    
   110   55   57 1    
   111   57   58 1    
   112   57   59 1    
   113   57  118 1    
   114   58  119 1    
   115   58  120 1    
   116   58  121 1    
   117   59   60 am   BACKBONE|DICT|INTERRES
   118   59  122 1    
   119   60   61 2    
   120   60   62 1    
   121   62   63 1    
   122   62   64 1    
   123   62  123 1    
   124   63  124 1    
   125   63  125 1    
   126   63  126 1    
   127   64   65 am   BACKBONE|DICT|INTERRES
   128   64  127 1    
   129   65   66 2    
@<TRIPOS>SUBSTRUCTURE
     1 UNK         1 GROUP             0       ****    0 ROOT    
