@<TRIPOS>MOLECULE
3R134
127   129    1
SMALL
USER_CHARGES


@<TRIPOS>ATOM
      1 CA         32.1112  -49.2286  -58.3175 C.3       0 UNK        -0.1968 
      2 C          33.0377  -48.2762  -57.5729 C.2       0 UNK         0.4852 
      3 O          34.1553  -48.0389  -58.0332 O.2       0 UNK        -0.5359 
      4 N          32.5624  -47.7409  -56.4391 N.am      1 UNK        -0.4300 
      5 CA         33.2421  -46.8304  -55.5035 C.3       1 UNK         0.0863 
      6 C6         33.9003  -45.5816  -56.1605 C.3       11 UNK        -0.0953 
      7 S7         32.7750  -44.6303  -57.2376 S.3       11 UNK        -0.2369 
      8 C8         32.2921  -43.2547  -56.1509 C.3       11 UNK         0.0226 
      9 C9         31.2696  -43.6993  -55.1183 C.ar      11 UNK        -0.0699 
     10 C10        31.6482  -43.9458  -53.7966 C.ar      11 UNK        -0.0804 
     11 C11        30.7019  -44.3626  -52.8554 C.ar      11 UNK        -0.0871 
     12 C12        29.3637  -44.5079  -53.2381 C.ar      11 UNK        -0.1008 
     13 C13        28.9756  -44.2633  -54.5596 C.ar      11 UNK        -0.0735 
     14 C14        29.9355  -43.8651  -55.4935 C.ar      11 UNK        -0.0945 
     15 C15        27.5291  -44.4575  -54.9893 C.3       11 UNK         0.0169 
     16 S16        26.5074  -42.9841  -54.6975 S.3       11 UNK        -0.2669 
     17 C17        26.9911  -41.8898  -56.0773 C.3       11 UNK        -0.0850 
     18 CA         25.9730  -41.9158  -57.2491 C.3       10 UNK         0.0855 
     19 C          26.1724  -40.6940  -58.1956 C.2       10 UNK         0.5543 
     20 N          26.4285  -40.8799  -59.4853 N.am      10 UNK        -0.7343 
     21 O          26.0807  -39.5522  -57.7515 O.2       10 UNK        -0.5027 
     22 N          25.9560  -43.2154  -57.9526 N.am      10 UNK        -0.4495 
     23 C          24.8690  -43.7294  -58.5446 C.2       10 UNK         0.4903 
     24 O          23.7500  -43.2202  -58.4658 O.2       10 UNK        -0.4860 
     25 CA         25.0327  -44.9983  -59.4058 C.3       9 UNK         0.0227 
     26 CB         24.8155  -44.6623  -60.8918 C.3       9 UNK        -0.1964 
     27 N          26.3133  -45.7024  -59.2681 N.am      9 UNK        -0.4231 
     28 C          26.6467  -46.4828  -58.2331 C.2       9 UNK         0.5014 
     29 O          25.9753  -46.5782  -57.2034 O.2       9 UNK        -0.5270 
     30 CA         27.9608  -47.2758  -58.3743 C.3       8 UNK         0.0284 
     31 CB         29.1820  -46.4018  -58.0418 C.3       8 UNK        -0.1977 
     32 N          27.9660  -48.4419  -57.4923 N.am      8 UNK        -0.4342 
     33 C          27.2625  -49.5658  -57.6895 C.2       8 UNK         0.5039 
     34 O          26.6665  -49.8330  -58.7339 O.2       8 UNK        -0.5547 
     35 CA         27.1974  -50.5444  -56.5032 C.3       7 UNK         0.0281 
     36 CB         28.3642  -51.5418  -56.5607 C.3       7 UNK        -0.1963 
     37 N          27.2179  -49.8223  -55.2260 N.am      7 UNK        -0.4444 
     38 C          26.1458  -49.2132  -54.6959 C.2       7 UNK         0.5104 
     39 O          25.0030  -49.3649  -55.1292 O.2       7 UNK        -0.5100 
     40 CA         26.3629  -48.2319  -53.5244 C.3       6 UNK         0.0396 
     41 CB         25.6099  -48.6789  -52.2540 C.3       6 UNK        -0.1801 
     42 N          27.7700  -47.8983  -53.2468 N.am      6 UNK        -0.4747 
     43 C          28.7044  -48.6746  -52.6820 C.2       6 UNK         0.5012 
     44 O          28.4914  -49.8115  -52.2559 O.2       6 UNK        -0.5003 
     45 CA         30.1302  -48.0871  -52.6146 C.3       5 UNK         0.0782 
     46 C46        30.3542  -47.3700  -51.2626 C.3       11 UNK        -0.0868 
     47 S47        31.8455  -46.3226  -51.2749 S.3       11 UNK        -0.2515 
     48 C48        31.1364  -44.6517  -51.4271 C.3       11 UNK         0.0199 
     49 N          31.1149  -49.1473  -52.8666 N.am      5 UNK        -0.4607 
     50 C          31.2099  -49.8019  -54.0317 C.2       4 UNK         0.5031 
     51 O          30.6364  -49.4202  -55.0564 O.2       4 UNK        -0.5119 
     52 CA         32.0687  -51.0780  -54.0485 C.3       4 UNK         0.0263 
     53 CB         32.3484  -51.5981  -55.4698 C.3       4 UNK        -0.1967 
     54 N          33.3469  -50.8496  -53.3802 N.am      4 UNK        -0.4237 
     55 C          33.7882  -51.4881  -52.2882 C.2       3 UNK         0.4908 
     56 O          33.1374  -52.3406  -51.6832 O.2       3 UNK        -0.5102 
     57 CA         35.1983  -51.1269  -51.7804 C.3       3 UNK         0.0241 
     58 CB         36.2157  -52.1928  -52.2195 C.3       3 UNK        -0.1971 
     59 N          35.6565  -49.8121  -52.2364 N.am      3 UNK        -0.4139 
     60 C          35.1672  -48.6460  -51.7955 C.2       2 UNK         0.5016 
     61 O          34.3490  -48.5569  -50.8810 O.2       2 UNK        -0.5319 
     62 CA         35.6458  -47.3669  -52.5082 C.3       2 UNK         0.0286 
     63 CB         37.0639  -47.4858  -53.1116 C.3       2 UNK        -0.1963 
     64 N          34.6873  -46.9045  -53.5229 N.am      2 UNK        -0.4790 
     65 C          34.2444  -47.5787  -54.5964 C.2       1 UNK         0.5024 
     66 O          34.5899  -48.7333  -54.8601 O.2       1 UNK        -0.4888 
     67 H67        31.8588  -48.8172  -59.2944 H         1 UNK         0.0892 
     68 H68        32.6015  -50.1896  -58.4692 H         1 UNK         0.0892 
     69 H69        31.1823  -49.4050  -57.7750 H         1 UNK         0.0892 
     70 H70        31.6725  -48.0909  -56.0991 H         1 UNK         0.3107 
     71 H71        32.4500  -46.4776  -54.8421 H         1 UNK         0.0773 
     72 H72        34.2958  -44.9099  -55.3974 H         1 UNK         0.0680 
     73 H73        34.7638  -45.8730  -56.7601 H         1 UNK         0.0680 
     74 H74        31.8630  -42.4604  -56.7634 H         1 UNK         0.0650 
     75 H75        33.1745  -42.8258  -55.6737 H         1 UNK         0.0650 
     76 H76        32.6809  -43.8225  -53.5010 H         1 UNK         0.1397 
     77 H77        28.6249  -44.8128  -52.5095 H         1 UNK         0.1363 
     78 H78        29.6525  -43.6900  -56.5217 H         1 UNK         0.1355 
     79 H79        27.0892  -45.2929  -54.4463 H         1 UNK         0.0707 
     80 H80        27.4797  -44.7228  -56.0433 H         1 UNK         0.0707 
     81 H81        27.0615  -40.8853  -55.6550 H         1 UNK         0.1034 
     82 H82        27.9933  -42.1243  -56.4316 H         1 UNK         0.1034 
     83 H83        24.9880  -41.7608  -56.8043 H         1 UNK         0.0482 
     84 H84        26.4979  -41.8090  -59.8659 H         1 UNK         0.3460 
     85 H85        26.5489  -40.0781  -60.0842 H         1 UNK         0.3460 
     86 H86        26.8416  -43.6805  -58.0750 H         1 UNK         0.2989 
     87 H87        24.2401  -45.6859  -59.1024 H         1 UNK         0.0559 
     88 H88        25.5846  -43.9893  -61.2726 H         1 UNK         0.0848 
     89 H89        24.8204  -45.5617  -61.5080 H         1 UNK         0.0848 
     90 H90        23.8519  -44.1751  -61.0485 H         1 UNK         0.0848 
     91 H91        26.9344  -45.6643  -60.0643 H         1 UNK         0.3144 
     92 H92        28.0455  -47.6189  -59.4078 H         1 UNK         0.0727 
     93 H93        30.1112  -46.9143  -58.2895 H         1 UNK         0.0790 
     94 H94        29.2207  -46.1494  -56.9831 H         1 UNK         0.0790 
     95 H95        29.1747  -45.4679  -58.6052 H         1 UNK         0.0790 
     96 H96        28.3987  -48.3181  -56.5905 H         1 UNK         0.3215 
     97 H97        26.2648  -51.1082  -56.5776 H         1 UNK         0.0863 
     98 H98        28.3790  -52.1950  -55.6881 H         1 UNK         0.0808 
     99 H99        29.3244  -51.0322  -56.6203 H         1 UNK         0.0808 
    100 H100       28.2839  -52.1781  -57.4430 H         1 UNK         0.0808 
    101 H101       28.1166  -49.6967  -54.7811 H         1 UNK         0.3118 
    102 H102       25.9060  -47.2952  -53.8467 H         1 UNK         0.0546 
    103 H103       24.5376  -48.7431  -52.4429 H         1 UNK         0.0828 
    104 H104       25.7514  -47.9718  -51.4369 H         1 UNK         0.0828 
    105 H105       25.9306  -49.6622  -51.9097 H         1 UNK         0.0828 
    106 H106       28.0538  -46.9856  -53.5723 H         1 UNK         0.3005 
    107 H107       30.2309  -47.3521  -53.4166 H         1 UNK         0.1257 
    108 H108       30.4502  -48.0979  -50.4548 H         1 UNK         0.0775 
    109 H109       29.4961  -46.7484  -50.9997 H         1 UNK         0.0775 
    110 H110       30.3047  -44.5294  -50.7314 H         1 UNK         0.0840 
    111 H111       31.8897  -43.9236  -51.1223 H         1 UNK         0.0840 
    112 H112       31.6177  -49.4969  -52.0637 H         1 UNK         0.2987 
    113 H113       31.4902  -51.8396  -53.5221 H         1 UNK         0.0785 
    114 H114       31.4255  -51.7899  -56.0156 H         1 UNK         0.0798 
    115 H115       32.9029  -52.5361  -55.4414 H         1 UNK         0.0798 
    116 H116       32.9362  -50.8850  -56.0468 H         1 UNK         0.0798 
    117 H117       33.9389  -50.1395  -53.8067 H         1 UNK         0.3079 
    118 H118       35.1610  -51.1179  -50.6888 H         1 UNK         0.0794 
    119 H119       35.9202  -53.1825  -51.8683 H         1 UNK         0.0786 
    120 H120       37.2059  -51.9888  -51.8115 H         1 UNK         0.0786 
    121 H121       36.3028  -52.2452  -53.3057 H         1 UNK         0.0786 
    122 H122       36.3033  -49.7950  -53.0121 H         1 UNK         0.3032 
    123 H123       35.6831  -46.5934  -51.7388 H         1 UNK         0.1094 
    124 H124       37.4173  -46.5166  -53.4640 H         1 UNK         0.0794 
    125 H125       37.7803  -47.8334  -52.3657 H         1 UNK         0.0794 
    126 H126       37.1061  -48.1733  -53.9567 H         1 UNK         0.0794 
    127 H127       34.3018  -45.9869  -53.3493 H         1 UNK         0.3016 
@<TRIPOS>BOND
     1    1    2 1    
     2    1   67 1    
     3    1   68 1    
     4    1   69 1    
     5    2    3 2    
     6    2    4 am   BACKBONE|DICT|INTERRES
     7    4    5 1    
     8    4   70 1    
     9    5    6 1    
    10    5   65 1    
    11    5   71 1    
    12    6    7 1    
    13    6   72 1    
    14    6   73 1    
    15    7    8 1    
    16    8    9 1    
    17    8   74 1    
    18    8   75 1    
    19    9   10 ar   
    20    9   14 ar   
    21   10   11 ar   
    22   10   76 1    
    23   11   12 ar   
    24   11   48 1    
    25   12   13 ar   
    26   12   77 1    
    27   13   14 ar   
    28   13   15 1    
    29   14   78 1    
    30   15   16 1    
    31   15   79 1    
    32   15   80 1    
    33   16   17 1    
    34   17   18 1    
    35   17   81 1    
    36   17   82 1    
    37   18   19 1    
    38   18   22 1    
    39   18   83 1    
    40   19   20 am   BACKBONE|DICT|INTERRES
    41   19   21 2    
    42   20   84 1    
    43   20   85 1    
    44   22   23 am   BACKBONE|DICT|INTERRES
    45   22   86 1    
    46   23   24 2    
    47   23   25 1    
    48   25   26 1    
    49   25   27 1    
    50   25   87 1    
    51   26   88 1    
    52   26   89 1    
    53   26   90 1    
    54   27   28 am   BACKBONE|DICT|INTERRES
    55   27   91 1    
    56   28   29 2    
    57   28   30 1    
    58   30   31 1    
    59   30   32 1    
    60   30   92 1    
    61   31   93 1    
    62   31   94 1    
    63   31   95 1    
    64   32   33 am   BACKBONE|DICT|INTERRES
    65   32   96 1    
    66   33   34 2    
    67   33   35 1    
    68   35   36 1    
    69   35   37 1    
    70   35   97 1    
    71   36   98 1    
    72   36   99 1    
    73   36  100 1    
    74   37   38 am   BACKBONE|DICT|INTERRES
    75   37  101 1    
    76   38   39 2    
    77   38   40 1    
    78   40   41 1    
    79   40   42 1    
    80   40  102 1    
    81   41  103 1    
    82   41  104 1    
    83   41  105 1    
    84   42   43 am   BACKBONE|DICT|INTERRES
    85   42  106 1    
    86   43   44 2    
    87   43   45 1    
    88   45   46 1    
    89   45   49 1    
    90   45  107 1    
    91   46   47 1    
    92   46  108 1    
    93   46  109 1    
    94   47   48 1    
    95   48  110 1    
    96   48  111 1    
    97   49   50 am   BACKBONE|DICT|INTERRES
    98   49  112 1    
    99   50   51 2    
   100   50   52 1    
   101   52   53 1    
   102   52   54 1    
   103   52  113 1    
   104   53  114 1    
   105   53  115 1    
   106   53  116 1    
   107   54   55 am   BACKBONE|DICT|INTERRES
   108   54  117 1    
   109   55   56 2    
   110   55   57 1    
   111   57   58 1    
   112   57   59 1    
   113   57  118 1    
   114   58  119 1    
   115   58  120 1    
   116   58  121 1    
   117   59   60 am   BACKBONE|DICT|INTERRES
   118   59  122 1    
   119   60   61 2    
   120   60   62 1    
   121   62   63 1    
   122   62   64 1    
   123   62  123 1    
   124   63  124 1    
   125   63  125 1    
   126   63  126 1    
   127   64   65 am   BACKBONE|DICT|INTERRES
   128   64  127 1    
   129   65   66 2    
@<TRIPOS>SUBSTRUCTURE
     1 UNK         1 GROUP             0       ****    0 ROOT    
