@<TRIPOS>MOLECULE
3R134
127   129    1
SMALL
USER_CHARGES


@<TRIPOS>ATOM
      1 CA         37.8738  -43.4075  -50.8625 C.3       0 UNK        -0.1968 
      2 C          36.7942  -43.4925  -51.9317 C.2       0 UNK         0.4852 
      3 O          36.8961  -42.8178  -52.9579 O.2       0 UNK        -0.5359 
      4 N          35.7587  -44.3078  -51.6950 N.am      1 UNK        -0.4300 
      5 CA         34.6532  -44.5526  -52.6272 C.3       1 UNK         0.0863 
      6 C6         33.4354  -45.1997  -51.9229 C.3       11 UNK        -0.0953 
      7 S7         32.8039  -44.2187  -50.5152 S.3       11 UNK        -0.2369 
      8 C8         32.0397  -42.7736  -51.3276 C.3       11 UNK         0.0226 
      9 C9         31.0027  -43.1750  -52.3657 C.ar      11 UNK        -0.0699 
     10 C10        29.8009  -43.7653  -51.9651 C.ar      11 UNK        -0.0804 
     11 C11        28.8737  -44.2070  -52.9144 C.ar      11 UNK        -0.0871 
     12 C12        29.1465  -44.0209  -54.2730 C.ar      11 UNK        -0.1008 
     13 C13        30.3339  -43.4068  -54.6865 C.ar      11 UNK        -0.0735 
     14 C14        31.2577  -42.9841  -53.7271 C.ar      11 UNK        -0.0945 
     15 C15        30.6392  -43.2459  -56.1688 C.3       11 UNK         0.0169 
     16 S16        29.3685  -42.2681  -57.0286 S.3       11 UNK        -0.2669 
     17 C17        29.7414  -42.6619  -58.7722 C.3       11 UNK        -0.0850 
     18 CA         28.7199  -43.6657  -59.3858 C.3       10 UNK         0.0855 
     19 C          28.8134  -43.7524  -60.9413 C.2       10 UNK         0.5543 
     20 N          28.5087  -44.8883  -61.5573 N.am      10 UNK        -0.7343 
     21 O          29.1319  -42.7694  -61.6063 O.2       10 UNK        -0.5027 
     22 N          28.7055  -44.9686  -58.6927 N.am      10 UNK        -0.4495 
     23 C          29.6911  -45.8740  -58.6627 C.2       10 UNK         0.4903 
     24 O          30.7745  -45.7224  -59.2263 O.2       10 UNK        -0.4860 
     25 CA         29.4471  -47.1773  -57.8780 C.3       9 UNK         0.0227 
     26 CB         29.9514  -47.0531  -56.4291 C.3       9 UNK        -0.1964 
     27 N          28.0724  -47.6956  -57.9076 N.am      9 UNK        -0.4231 
     28 C          26.9523  -47.1845  -57.3805 C.2       9 UNK         0.5014 
     29 O          26.8929  -46.0896  -56.8204 O.2       9 UNK        -0.5270 
     30 CA         25.6762  -48.0357  -57.4934 C.3       8 UNK         0.0284 
     31 CB         25.0079  -47.8656  -58.8718 C.3       8 UNK        -0.1977 
     32 N          25.8684  -49.4510  -57.1411 N.am      8 UNK        -0.4342 
     33 C          26.5700  -50.4002  -57.7820 C.2       8 UNK         0.5039 
     34 O          27.1627  -50.1979  -58.8436 O.2       8 UNK        -0.5547 
     35 CA         26.6697  -51.7873  -57.1155 C.3       7 UNK         0.0281 
     36 CB         28.0628  -52.4130  -57.3165 C.3       7 UNK        -0.1963 
     37 N          26.3958  -51.7105  -55.6794 N.am      7 UNK        -0.4444 
     38 C          25.2420  -52.0518  -55.0877 C.2       7 UNK         0.5104 
     39 O          24.2894  -52.5530  -55.6847 O.2       7 UNK        -0.5100 
     40 CA         25.1074  -51.7543  -53.5797 C.3       6 UNK         0.0396 
     41 CB         25.3874  -53.0229  -52.7587 C.3       6 UNK        -0.1801 
     42 N          25.9839  -50.6761  -53.1101 N.am      6 UNK        -0.4747 
     43 C          25.9369  -49.3998  -53.5229 C.2       6 UNK         0.5012 
     44 O          25.0686  -48.9664  -54.2802 O.2       6 UNK        -0.5003 
     45 CA         27.0838  -48.4694  -53.0748 C.3       5 UNK         0.0782 
     46 C46        26.6063  -47.5056  -51.9612 C.3       11 UNK        -0.0868 
     47 S47        27.9250  -46.3568  -51.4440 S.3       11 UNK        -0.2515 
     48 C48        27.5857  -44.8946  -52.4786 C.3       11 UNK         0.0199 
     49 N          28.3072  -49.1941  -52.6959 N.am      5 UNK        -0.4607 
     50 C          29.0502  -49.9360  -53.5250 C.2       4 UNK         0.5031 
     51 O          28.7323  -50.1876  -54.6891 O.2       4 UNK        -0.5119 
     52 CA         30.3350  -50.5442  -52.9414 C.3       4 UNK         0.0263 
     53 CB         30.1247  -52.0356  -52.6328 C.3       4 UNK        -0.1967 
     54 N          31.4556  -50.3933  -53.8709 N.am      4 UNK        -0.4237 
     55 C          32.0219  -49.2194  -54.1783 C.2       3 UNK         0.4908 
     56 O          31.7335  -48.1539  -53.6241 O.2       3 UNK        -0.5102 
     57 CA         33.0763  -49.2313  -55.2955 C.3       3 UNK         0.0241 
     58 CB         32.5151  -49.8233  -56.6087 C.3       3 UNK        -0.1971 
     59 N          33.5215  -47.8540  -55.4895 N.am      3 UNK        -0.4139 
     60 C          34.5485  -47.4250  -56.2291 C.2       2 UNK         0.5016 
     61 O          35.2868  -48.1633  -56.8823 O.2       2 UNK        -0.5319 
     62 CA         34.8001  -45.9059  -56.2394 C.3       2 UNK         0.0286 
     63 CB         34.0186  -45.2431  -57.3867 C.3       2 UNK        -0.1963 
     64 N          34.4668  -45.2310  -54.9782 N.am      2 UNK        -0.4790 
     65 C          35.1161  -45.4165  -53.8195 C.2       1 UNK         0.5024 
     66 O          36.0303  -46.2319  -53.6718 O.2       1 UNK        -0.4888 
     67 H67        37.6485  -44.0402  -50.0040 H         1 UNK         0.0892 
     68 H68        37.9730  -42.3812  -50.5099 H         1 UNK         0.0892 
     69 H69        38.8331  -43.7218  -51.2727 H         1 UNK         0.0892 
     70 H70        35.7332  -44.8467  -50.8415 H         1 UNK         0.3107 
     71 H71        34.3425  -43.5855  -53.0271 H         1 UNK         0.0773 
     72 H72        33.7014  -46.1874  -51.5412 H         1 UNK         0.0680 
     73 H73        32.6190  -45.3702  -52.6272 H         1 UNK         0.0680 
     74 H74        31.5643  -42.1537  -50.5664 H         1 UNK         0.0650 
     75 H75        32.8222  -42.1586  -51.7743 H         1 UNK         0.0650 
     76 H76        29.6049  -43.9161  -50.9121 H         1 UNK         0.1397 
     77 H77        28.4350  -44.3552  -55.0167 H         1 UNK         0.1363 
     78 H78        32.1836  -42.5216  -54.0397 H         1 UNK         0.1355 
     79 H79        30.7098  -44.2360  -56.6135 H         1 UNK         0.0707 
     80 H80        31.6094  -42.7706  -56.3215 H         1 UNK         0.0707 
     81 H81        30.7621  -43.0350  -58.8700 H         1 UNK         0.1034 
     82 H82        29.7203  -41.7154  -59.3153 H         1 UNK         0.1034 
     83 H83        27.7273  -43.2491  -59.2111 H         1 UNK         0.0482 
     84 H84        28.2382  -45.6986  -61.0241 H         1 UNK         0.3460 
     85 H85        28.5595  -44.9356  -62.5627 H         1 UNK         0.3460 
     86 H86        27.8760  -45.1739  -58.1425 H         1 UNK         0.2989 
     87 H87        30.0496  -47.9439  -58.3673 H         1 UNK         0.0559 
     88 H88        29.8604  -47.9999  -55.8989 H         1 UNK         0.0848 
     89 H89        29.3919  -46.3105  -55.8644 H         1 UNK         0.0848 
     90 H90        31.0009  -46.7612  -56.4010 H         1 UNK         0.0848 
     91 H91        27.9567  -48.5954  -58.3734 H         1 UNK         0.3144 
     92 H92        24.9804  -47.6461  -56.7484 H         1 UNK         0.0727 
     93 H93        24.0707  -48.4193  -58.9278 H         1 UNK         0.0790 
     94 H94        25.6477  -48.2067  -59.6860 H         1 UNK         0.0790 
     95 H95        24.7764  -46.8168  -59.0625 H         1 UNK         0.0790 
     96 H96        25.4675  -49.7027  -56.2446 H         1 UNK         0.3215 
     97 H97        25.9365  -52.4300  -57.6070 H         1 UNK         0.0863 
     98 H98        28.1352  -53.3852  -56.8290 H         1 UNK         0.0808 
     99 H99        28.8523  -51.7766  -56.9145 H         1 UNK         0.0808 
    100 H100       28.2759  -52.5675  -58.3750 H         1 UNK         0.0808 
    101 H101       27.1248  -51.2702  -55.1238 H         1 UNK         0.3118 
    102 H102       24.0755  -51.4474  -53.3968 H         1 UNK         0.0546 
    103 H103       24.7304  -53.8384  -53.0647 H         1 UNK         0.0828 
    104 H104       25.2164  -52.8548  -51.6953 H         1 UNK         0.0828 
    105 H105       26.4145  -53.3680  -52.8850 H         1 UNK         0.0828 
    106 H106       26.7320  -50.9397  -52.4850 H         1 UNK         0.3005 
    107 H107       27.3377  -47.8657  -53.9501 H         1 UNK         0.1257 
    108 H108       26.2883  -48.0681  -51.0812 H         1 UNK         0.0775 
    109 H109       25.7348  -46.9327  -52.2849 H         1 UNK         0.0775 
    110 H110       27.0050  -45.1912  -53.3537 H         1 UNK         0.0840 
    111 H111       26.9672  -44.1915  -51.9192 H         1 UNK         0.0840 
    112 H112       28.6398  -49.0252  -51.7572 H         1 UNK         0.2987 
    113 H113       30.5887  -50.0273  -52.0131 H         1 UNK         0.0785 
    114 H114       29.8690  -52.6022  -53.5295 H         1 UNK         0.0798 
    115 H115       29.3140  -52.1765  -51.9167 H         1 UNK         0.0798 
    116 H116       31.0194  -52.4812  -52.1977 H         1 UNK         0.0798 
    117 H117       31.7252  -51.2167  -54.3887 H         1 UNK         0.3079 
    118 H118       33.9258  -49.8266  -54.9554 H         1 UNK         0.0794 
    119 H119       31.6562  -49.2612  -56.9722 H         1 UNK         0.0786 
    120 H120       32.1942  -50.8569  -56.4784 H         1 UNK         0.0786 
    121 H121       33.2634  -49.8290  -57.4008 H         1 UNK         0.0786 
    122 H122       32.9990  -47.1879  -54.9322 H         1 UNK         0.3032 
    123 H123       35.8670  -45.7587  -56.4233 H         1 UNK         0.1094 
    124 H124       32.9406  -45.3388  -57.2531 H         1 UNK         0.0794 
    125 H125       34.2549  -44.1822  -57.4703 H         1 UNK         0.0794 
    126 H126       34.2661  -45.7038  -58.3442 H         1 UNK         0.0794 
    127 H127       33.7235  -44.5490  -55.0159 H         1 UNK         0.3016 
@<TRIPOS>BOND
     1    1    2 1    
     2    1   67 1    
     3    1   68 1    
     4    1   69 1    
     5    2    3 2    
     6    2    4 am   BACKBONE|DICT|INTERRES
     7    4    5 1    
     8    4   70 1    
     9    5    6 1    
    10    5   65 1    
    11    5   71 1    
    12    6    7 1    
    13    6   72 1    
    14    6   73 1    
    15    7    8 1    
    16    8    9 1    
    17    8   74 1    
    18    8   75 1    
    19    9   10 ar   
    20    9   14 ar   
    21   10   11 ar   
    22   10   76 1    
    23   11   12 ar   
    24   11   48 1    
    25   12   13 ar   
    26   12   77 1    
    27   13   14 ar   
    28   13   15 1    
    29   14   78 1    
    30   15   16 1    
    31   15   79 1    
    32   15   80 1    
    33   16   17 1    
    34   17   18 1    
    35   17   81 1    
    36   17   82 1    
    37   18   19 1    
    38   18   22 1    
    39   18   83 1    
    40   19   20 am   BACKBONE|DICT|INTERRES
    41   19   21 2    
    42   20   84 1    
    43   20   85 1    
    44   22   23 am   BACKBONE|DICT|INTERRES
    45   22   86 1    
    46   23   24 2    
    47   23   25 1    
    48   25   26 1    
    49   25   27 1    
    50   25   87 1    
    51   26   88 1    
    52   26   89 1    
    53   26   90 1    
    54   27   28 am   BACKBONE|DICT|INTERRES
    55   27   91 1    
    56   28   29 2    
    57   28   30 1    
    58   30   31 1    
    59   30   32 1    
    60   30   92 1    
    61   31   93 1    
    62   31   94 1    
    63   31   95 1    
    64   32   33 am   BACKBONE|DICT|INTERRES
    65   32   96 1    
    66   33   34 2    
    67   33   35 1    
    68   35   36 1    
    69   35   37 1    
    70   35   97 1    
    71   36   98 1    
    72   36   99 1    
    73   36  100 1    
    74   37   38 am   BACKBONE|DICT|INTERRES
    75   37  101 1    
    76   38   39 2    
    77   38   40 1    
    78   40   41 1    
    79   40   42 1    
    80   40  102 1    
    81   41  103 1    
    82   41  104 1    
    83   41  105 1    
    84   42   43 am   BACKBONE|DICT|INTERRES
    85   42  106 1    
    86   43   44 2    
    87   43   45 1    
    88   45   46 1    
    89   45   49 1    
    90   45  107 1    
    91   46   47 1    
    92   46  108 1    
    93   46  109 1    
    94   47   48 1    
    95   48  110 1    
    96   48  111 1    
    97   49   50 am   BACKBONE|DICT|INTERRES
    98   49  112 1    
    99   50   51 2    
   100   50   52 1    
   101   52   53 1    
   102   52   54 1    
   103   52  113 1    
   104   53  114 1    
   105   53  115 1    
   106   53  116 1    
   107   54   55 am   BACKBONE|DICT|INTERRES
   108   54  117 1    
   109   55   56 2    
   110   55   57 1    
   111   57   58 1    
   112   57   59 1    
   113   57  118 1    
   114   58  119 1    
   115   58  120 1    
   116   58  121 1    
   117   59   60 am   BACKBONE|DICT|INTERRES
   118   59  122 1    
   119   60   61 2    
   120   60   62 1    
   121   62   63 1    
   122   62   64 1    
   123   62  123 1    
   124   63  124 1    
   125   63  125 1    
   126   63  126 1    
   127   64   65 am   BACKBONE|DICT|INTERRES
   128   64  127 1    
   129   65   66 2    
@<TRIPOS>SUBSTRUCTURE
     1 UNK         1 GROUP             0       ****    0 ROOT    
