@<TRIPOS>MOLECULE
3R134
127   129    1
SMALL
USER_CHARGES


@<TRIPOS>ATOM
      1 CA         37.3025  -46.6289  -50.6089 C.3       0 UNK        -0.1968 
      2 C          36.5748  -46.4140  -51.9278 C.2       0 UNK         0.4852 
      3 O          37.2188  -46.3325  -52.9745 O.2       0 UNK        -0.5359 
      4 N          35.2385  -46.3280  -51.8854 N.am      1 UNK        -0.4300 
      5 CA         34.3726  -46.0965  -53.0505 C.3       1 UNK         0.0863 
      6 C6         33.0421  -45.4082  -52.6545 C.3       11 UNK        -0.0953 
      7 S7         33.2995  -43.7511  -51.9454 S.3       11 UNK        -0.2369 
      8 C8         33.1437  -42.6999  -53.4313 C.3       11 UNK         0.0226 
      9 C9         31.7306  -42.5776  -54.0056 C.ar      11 UNK        -0.0699 
     10 C10        30.5904  -42.6454  -53.1952 C.ar      11 UNK        -0.0804 
     11 C11        29.3150  -42.4768  -53.7418 C.ar      11 UNK        -0.0871 
     12 C12        29.1813  -42.2035  -55.1075 C.ar      11 UNK        -0.1008 
     13 C13        30.3073  -42.1310  -55.9318 C.ar      11 UNK        -0.0735 
     14 C14        31.5753  -42.3298  -55.3743 C.ar      11 UNK        -0.0945 
     15 C15        30.1685  -41.7758  -57.4090 C.3       11 UNK         0.0169 
     16 S16        29.5016  -43.1426  -58.4169 S.3       11 UNK        -0.2669 
     17 C17        27.7039  -42.8052  -58.4183 C.3       11 UNK        -0.0850 
     18 CA         26.8935  -43.8893  -57.6533 C.3       10 UNK         0.0855 
     19 C          25.4347  -43.4515  -57.3165 C.2       10 UNK         0.5543 
     20 N          24.4594  -44.3530  -57.2865 N.am      10 UNK        -0.7343 
     21 O          25.1858  -42.2815  -57.0371 O.2       10 UNK        -0.5027 
     22 N          27.0096  -45.2356  -58.2369 N.am      10 UNK        -0.4495 
     23 C          26.5361  -45.6394  -59.4243 C.2       10 UNK         0.4903 
     24 O          26.0203  -44.8880  -60.2522 O.2       10 UNK        -0.4860 
     25 CA         26.6151  -47.1464  -59.7365 C.3       9 UNK         0.0227 
     26 CB         27.8026  -47.4356  -60.6675 C.3       9 UNK        -0.1964 
     27 N          26.6940  -47.9863  -58.5318 N.am      9 UNK        -0.4231 
     28 C          25.6771  -48.1488  -57.6675 C.2       9 UNK         0.5014 
     29 O          24.5630  -47.6539  -57.8509 O.2       9 UNK        -0.5270 
     30 CA         25.9277  -48.9154  -56.3521 C.3       8 UNK         0.0284 
     31 CB         24.7828  -49.8895  -56.0010 C.3       8 UNK        -0.1977 
     32 N          27.2465  -49.5492  -56.2499 N.am      8 UNK        -0.4342 
     33 C          27.6978  -50.6676  -56.8363 C.2       8 UNK         0.5039 
     34 O          27.0148  -51.3989  -57.5544 O.2       8 UNK        -0.5547 
     35 CA         29.1866  -51.0010  -56.5786 C.3       7 UNK         0.0281 
     36 CB         29.7666  -51.9910  -57.6094 C.3       7 UNK        -0.1963 
     37 N          30.0435  -49.8087  -56.4776 N.am      7 UNK        -0.4444 
     38 C          30.1356  -48.8176  -57.3765 C.2       7 UNK         0.5104 
     39 O          29.5449  -48.8191  -58.4559 O.2       7 UNK        -0.5100 
     40 CA         30.9435  -47.5843  -56.9420 C.3       6 UNK         0.0396 
     41 CB         30.9631  -46.4735  -58.0112 C.3       6 UNK        -0.1801 
     42 N          30.4802  -47.0491  -55.6519 N.am      6 UNK        -0.4747 
     43 C          29.2411  -46.6247  -55.3505 C.2       6 UNK         0.5012 
     44 O          28.2990  -46.6569  -56.1426 O.2       6 UNK        -0.5003 
     45 CA         28.9795  -46.1748  -53.8983 C.3       5 UNK         0.0782 
     46 C46        27.7554  -45.2310  -53.7850 C.3       11 UNK        -0.0868 
     47 S47        27.7998  -44.2740  -52.2349 S.3       11 UNK        -0.2515 
     48 C48        28.0807  -42.5786  -52.8530 C.3       11 UNK         0.0199 
     49 N          28.7865  -47.3670  -53.0703 N.am      5 UNK        -0.4607 
     50 C          29.7750  -48.1506  -52.6345 C.2       4 UNK         0.5031 
     51 O          30.9637  -47.8592  -52.7618 O.2       4 UNK        -0.5119 
     52 CA         29.3977  -49.5037  -52.0144 C.3       4 UNK         0.0263 
     53 CB         27.9806  -49.9999  -52.3821 C.3       4 UNK        -0.1967 
     54 N          30.4066  -50.4432  -52.4819 N.am      4 UNK        -0.4237 
     55 C          30.7330  -51.6285  -51.9714 C.2       3 UNK         0.4908 
     56 O          30.1504  -52.1522  -51.0213 O.2       3 UNK        -0.5102 
     57 CA         31.9297  -52.3511  -52.6194 C.3       3 UNK         0.0241 
     58 CB         31.4762  -53.2021  -53.8223 C.3       3 UNK        -0.1971 
     59 N          33.0724  -51.4889  -52.9760 N.am      3 UNK        -0.4139 
     60 C          33.1549  -50.5139  -53.8962 C.2       2 UNK         0.5016 
     61 O          32.2061  -50.1362  -54.5897 O.2       2 UNK        -0.5319 
     62 CA         34.5416  -49.8685  -54.0593 C.3       2 UNK         0.0286 
     63 CB         35.0042  -49.8711  -55.5318 C.3       2 UNK        -0.1963 
     64 N          34.6193  -48.5335  -53.4470 N.am      2 UNK        -0.4790 
     65 C          34.1159  -47.3693  -53.8916 C.2       1 UNK         0.5024 
     66 O          33.4907  -47.2472  -54.9419 O.2       1 UNK        -0.4888 
     67 H67        37.8760  -47.5549  -50.6425 H         1 UNK         0.0892 
     68 H68        37.9935  -45.8068  -50.4243 H         1 UNK         0.0892 
     69 H69        36.6133  -46.6870  -49.7666 H         1 UNK         0.0892 
     70 H70        34.7626  -46.3895  -50.9962 H         1 UNK         0.3107 
     71 H71        34.8965  -45.4133  -53.7227 H         1 UNK         0.0773 
     72 H72        32.5127  -46.0061  -51.9121 H         1 UNK         0.0680 
     73 H73        32.3702  -45.3190  -53.5099 H         1 UNK         0.0680 
     74 H74        33.4923  -41.6985  -53.1766 H         1 UNK         0.0650 
     75 H75        33.8278  -43.0789  -54.1922 H         1 UNK         0.0650 
     76 H76        30.6861  -42.8280  -52.1339 H         1 UNK         0.1397 
     77 H77        28.2000  -42.0405  -55.5304 H         1 UNK         0.1363 
     78 H78        32.4510  -42.2591  -56.0051 H         1 UNK         0.1355 
     79 H79        31.1440  -41.5083  -57.8180 H         1 UNK         0.0707 
     80 H80        29.5535  -40.8819  -57.5186 H         1 UNK         0.0707 
     81 H81        27.5317  -41.8186  -57.9864 H         1 UNK         0.1034 
     82 H82        27.3632  -42.7316  -59.4517 H         1 UNK         0.1034 
     83 H83        27.3616  -43.9830  -56.6781 H         1 UNK         0.0482 
     84 H84        23.5243  -44.0585  -57.0540 H         1 UNK         0.3460 
     85 H85        24.6420  -45.3210  -57.5113 H         1 UNK         0.3460 
     86 H86        27.4303  -45.9254  -57.6187 H         1 UNK         0.2989 
     87 H87        25.7020  -47.4194  -60.2694 H         1 UNK         0.0559 
     88 H88        27.8985  -48.5012  -60.8763 H         1 UNK         0.0848 
     89 H89        28.7442  -47.0892  -60.2409 H         1 UNK         0.0848 
     90 H90        27.6775  -46.9263  -61.6238 H         1 UNK         0.0848 
     91 H91        27.6024  -48.3903  -58.3206 H         1 UNK         0.3144 
     92 H92        25.9305  -48.1458  -55.5787 H         1 UNK         0.0727 
     93 H93        24.9739  -50.4062  -55.0604 H         1 UNK         0.0790 
     94 H94        24.6362  -50.6417  -56.7763 H         1 UNK         0.0790 
     95 H95        23.8379  -49.3564  -55.8899 H         1 UNK         0.0790 
     96 H96        27.9336  -48.9931  -55.7604 H         1 UNK         0.3215 
     97 H97        29.2169  -51.4835  -55.6009 H         1 UNK         0.0863 
     98 H98        30.8066  -52.2298  -57.3866 H         1 UNK         0.0808 
     99 H99        29.7234  -51.5889  -58.6221 H         1 UNK         0.0808 
    100 H100       29.2119  -52.9300  -57.6072 H         1 UNK         0.0808 
    101 H101       30.6541  -49.7601  -55.6638 H         1 UNK         0.3118 
    102 H102       31.9667  -47.9316  -56.8069 H         1 UNK         0.0546 
    103 H103       29.9601  -46.1099  -58.2346 H         1 UNK         0.0828 
    104 H104       31.3911  -46.8379  -58.9455 H         1 UNK         0.0828 
    105 H105       31.5625  -45.6228  -57.6874 H         1 UNK         0.0828 
    106 H106       31.1738  -47.0828  -54.9108 H         1 UNK         0.3005 
    107 H107       29.8671  -45.6309  -53.5653 H         1 UNK         0.1257 
    108 H108       27.7215  -44.5312  -54.6154 H         1 UNK         0.0775 
    109 H109       26.8185  -45.7887  -53.8364 H         1 UNK         0.0775 
    110 H110       27.1896  -42.2461  -53.3880 H         1 UNK         0.0840 
    111 H111       28.1930  -41.9053  -52.0020 H         1 UNK         0.0840 
    112 H112       27.8321  -47.6600  -52.9249 H         1 UNK         0.2987 
    113 H113       29.4802  -49.4054  -50.9304 H         1 UNK         0.0785 
    114 H114       27.7849  -50.9843  -51.9568 H         1 UNK         0.0798 
    115 H115       27.8445  -50.0782  -53.4607 H         1 UNK         0.0798 
    116 H116       27.2098  -49.3349  -51.9914 H         1 UNK         0.0798 
    117 H117       31.0048  -50.0838  -53.2261 H         1 UNK         0.3079 
    118 H118       32.3104  -53.0400  -51.8635 H         1 UNK         0.0794 
    119 H119       30.6626  -53.8728  -53.5426 H         1 UNK         0.0786 
    120 H120       32.2913  -53.8213  -54.1968 H         1 UNK         0.0786 
    121 H121       31.1204  -52.5875  -54.6483 H         1 UNK         0.0786 
    122 H122       33.9079  -51.6806  -52.4402 H         1 UNK         0.3032 
    123 H123       35.2615  -50.4802  -53.5127 H         1 UNK         0.1094 
    124 H124       34.3054  -49.3490  -56.1859 H         1 UNK         0.0794 
    125 H125       35.9825  -49.4036  -55.6428 H         1 UNK         0.0794 
    126 H126       35.0865  -50.8917  -55.9073 H         1 UNK         0.0794 
    127 H127       35.1045  -48.4974  -52.5618 H         1 UNK         0.3016 
@<TRIPOS>BOND
     1    1    2 1    
     2    1   67 1    
     3    1   68 1    
     4    1   69 1    
     5    2    3 2    
     6    2    4 am   BACKBONE|DICT|INTERRES
     7    4    5 1    
     8    4   70 1    
     9    5    6 1    
    10    5   65 1    
    11    5   71 1    
    12    6    7 1    
    13    6   72 1    
    14    6   73 1    
    15    7    8 1    
    16    8    9 1    
    17    8   74 1    
    18    8   75 1    
    19    9   10 ar   
    20    9   14 ar   
    21   10   11 ar   
    22   10   76 1    
    23   11   12 ar   
    24   11   48 1    
    25   12   13 ar   
    26   12   77 1    
    27   13   14 ar   
    28   13   15 1    
    29   14   78 1    
    30   15   16 1    
    31   15   79 1    
    32   15   80 1    
    33   16   17 1    
    34   17   18 1    
    35   17   81 1    
    36   17   82 1    
    37   18   19 1    
    38   18   22 1    
    39   18   83 1    
    40   19   20 am   BACKBONE|DICT|INTERRES
    41   19   21 2    
    42   20   84 1    
    43   20   85 1    
    44   22   23 am   BACKBONE|DICT|INTERRES
    45   22   86 1    
    46   23   24 2    
    47   23   25 1    
    48   25   26 1    
    49   25   27 1    
    50   25   87 1    
    51   26   88 1    
    52   26   89 1    
    53   26   90 1    
    54   27   28 am   BACKBONE|DICT|INTERRES
    55   27   91 1    
    56   28   29 2    
    57   28   30 1    
    58   30   31 1    
    59   30   32 1    
    60   30   92 1    
    61   31   93 1    
    62   31   94 1    
    63   31   95 1    
    64   32   33 am   BACKBONE|DICT|INTERRES
    65   32   96 1    
    66   33   34 2    
    67   33   35 1    
    68   35   36 1    
    69   35   37 1    
    70   35   97 1    
    71   36   98 1    
    72   36   99 1    
    73   36  100 1    
    74   37   38 am   BACKBONE|DICT|INTERRES
    75   37  101 1    
    76   38   39 2    
    77   38   40 1    
    78   40   41 1    
    79   40   42 1    
    80   40  102 1    
    81   41  103 1    
    82   41  104 1    
    83   41  105 1    
    84   42   43 am   BACKBONE|DICT|INTERRES
    85   42  106 1    
    86   43   44 2    
    87   43   45 1    
    88   45   46 1    
    89   45   49 1    
    90   45  107 1    
    91   46   47 1    
    92   46  108 1    
    93   46  109 1    
    94   47   48 1    
    95   48  110 1    
    96   48  111 1    
    97   49   50 am   BACKBONE|DICT|INTERRES
    98   49  112 1    
    99   50   51 2    
   100   50   52 1    
   101   52   53 1    
   102   52   54 1    
   103   52  113 1    
   104   53  114 1    
   105   53  115 1    
   106   53  116 1    
   107   54   55 am   BACKBONE|DICT|INTERRES
   108   54  117 1    
   109   55   56 2    
   110   55   57 1    
   111   57   58 1    
   112   57   59 1    
   113   57  118 1    
   114   58  119 1    
   115   58  120 1    
   116   58  121 1    
   117   59   60 am   BACKBONE|DICT|INTERRES
   118   59  122 1    
   119   60   61 2    
   120   60   62 1    
   121   62   63 1    
   122   62   64 1    
   123   62  123 1    
   124   63  124 1    
   125   63  125 1    
   126   63  126 1    
   127   64   65 am   BACKBONE|DICT|INTERRES
   128   64  127 1    
   129   65   66 2    
@<TRIPOS>SUBSTRUCTURE
     1 UNK         1 GROUP             0       ****    0 ROOT    
