@<TRIPOS>MOLECULE
3R134
127   129    1
SMALL
USER_CHARGES


@<TRIPOS>ATOM
      1 CA         31.7193  -49.6979  -57.4319 C.3       0 UNK        -0.1968 
      2 C          32.7243  -48.6700  -56.9402 C.2       0 UNK         0.4852 
      3 O          33.8149  -48.5694  -57.5031 O.2       0 UNK        -0.5359 
      4 N          32.3712  -47.9250  -55.8822 N.am      1 UNK        -0.4300 
      5 CA         33.1475  -46.8665  -55.2257 C.3       1 UNK         0.0863 
      6 C6         33.6029  -45.7404  -56.1937 C.3       11 UNK        -0.0953 
      7 S7         34.2451  -44.2651  -55.3367 S.3       11 UNK        -0.2369 
      8 C8         32.9822  -43.0124  -55.7291 C.3       11 UNK         0.0226 
      9 C9         31.6966  -43.1902  -54.9309 C.ar      11 UNK        -0.0699 
     10 C10        31.7318  -43.1962  -53.5325 C.ar      11 UNK        -0.0804 
     11 C11        30.5516  -43.2916  -52.7908 C.ar      11 UNK        -0.0871 
     12 C12        29.3258  -43.3677  -53.4590 C.ar      11 UNK        -0.1008 
     13 C13        29.2755  -43.3723  -54.8550 C.ar      11 UNK        -0.0735 
     14 C14        30.4646  -43.2881  -55.5870 C.ar      11 UNK        -0.0945 
     15 C15        27.9319  -43.4476  -55.5651 C.3       11 UNK         0.0169 
     16 S16        27.3056  -41.7832  -55.9218 S.3       11 UNK        -0.2669 
     17 C17        25.6486  -42.1419  -56.6101 C.3       11 UNK        -0.0850 
     18 CA         25.5674  -42.4311  -58.1388 C.3       10 UNK         0.0855 
     19 C          26.4393  -41.4793  -59.0151 C.2       10 UNK         0.5543 
     20 N          27.4256  -41.9744  -59.7533 N.am      10 UNK        -0.7343 
     21 O          26.2015  -40.2739  -59.0343 O.2       10 UNK        -0.5027 
     22 N          25.6866  -43.8724  -58.4289 N.am      10 UNK        -0.4495 
     23 C          25.2816  -44.4576  -59.5642 C.2       10 UNK         0.4903 
     24 O          24.8116  -43.8326  -60.5165 O.2       10 UNK        -0.4860 
     25 CA         25.3985  -45.9946  -59.6478 C.3       9 UNK         0.0227 
     26 CB         25.1302  -46.5303  -61.0677 C.3       9 UNK        -0.1964 
     27 N          26.6899  -46.5141  -59.1864 N.am      9 UNK        -0.4231 
     28 C          27.0346  -46.7073  -57.9084 C.2       9 UNK         0.5014 
     29 O          26.3401  -46.3522  -56.9541 O.2       9 UNK        -0.5270 
     30 CA         28.3924  -47.3758  -57.6587 C.3       8 UNK         0.0284 
     31 CB         29.4482  -46.3428  -57.2375 C.3       8 UNK        -0.1977 
     32 N          28.2541  -48.3954  -56.6191 N.am      8 UNK        -0.4342 
     33 C          27.9611  -49.6808  -56.8657 C.2       8 UNK         0.5039 
     34 O          27.8751  -50.1494  -58.0017 O.2       8 UNK        -0.5547 
     35 CA         27.7284  -50.6177  -55.6657 C.3       7 UNK         0.0281 
     36 CB         28.9101  -51.5839  -55.4687 C.3       7 UNK        -0.1963 
     37 N          27.4807  -49.8997  -54.4158 N.am      7 UNK        -0.4444 
     38 C          26.2870  -49.4162  -54.0454 C.2       7 UNK         0.5104 
     39 O          25.2561  -49.5633  -54.7024 O.2       7 UNK        -0.5100 
     40 CA         26.2220  -48.6465  -52.7122 C.3       6 UNK         0.0396 
     41 CB         25.6247  -49.5370  -51.6108 C.3       6 UNK        -0.1801 
     42 N          27.5152  -48.1263  -52.2556 N.am      6 UNK        -0.4747 
     43 C          28.2123  -47.1589  -52.8699 C.2       6 UNK         0.5012 
     44 O          27.8558  -46.6191  -53.9152 O.2       6 UNK        -0.5003 
     45 CA         29.5632  -46.7777  -52.2363 C.3       5 UNK         0.0782 
     46 C46        29.3518  -45.8078  -51.0489 C.3       11 UNK        -0.0868 
     47 S47        30.9000  -44.9594  -50.5973 S.3       11 UNK        -0.2515 
     48 C48        30.6035  -43.2913  -51.2691 C.3       11 UNK         0.0199 
     49 N          30.3284  -47.9650  -51.8352 N.am      5 UNK        -0.4607 
     50 C          30.7634  -48.9113  -52.6732 C.2       4 UNK         0.5031 
     51 O          30.6059  -48.8735  -53.8975 O.2       4 UNK        -0.5119 
     52 CA         31.4256  -50.1345  -52.0360 C.3       4 UNK         0.0263 
     53 CB         30.3499  -51.1711  -51.6517 C.3       4 UNK        -0.1967 
     54 N          32.3673  -50.6898  -53.0017 N.am      4 UNK        -0.4237 
     55 C          33.2669  -51.6549  -52.7770 C.2       3 UNK         0.4908 
     56 O          33.4034  -52.2410  -51.7027 O.2       3 UNK        -0.5102 
     57 CA         34.1899  -52.0032  -53.9554 C.3       3 UNK         0.0241 
     58 CB         33.4077  -52.6856  -55.0916 C.3       3 UNK        -0.1971 
     59 N          34.8733  -50.8129  -54.4654 N.am      3 UNK        -0.4139 
     60 C          35.8713  -50.1780  -53.8319 C.2       2 UNK         0.5016 
     61 O          36.3963  -50.5805  -52.7932 O.2       2 UNK        -0.5319 
     62 CA         36.3546  -48.8590  -54.4581 C.3       2 UNK         0.0286 
     63 CB         37.4459  -49.1211  -55.5081 C.3       2 UNK        -0.1963 
     64 N          35.2592  -48.1054  -55.0718 N.am      2 UNK        -0.4790 
     65 C          34.2944  -47.4707  -54.3926 C.2       1 UNK         0.5024 
     66 O          34.2598  -47.3953  -53.1642 O.2       1 UNK        -0.4888 
     67 H67        31.3007  -49.3849  -58.3880 H         1 UNK         0.0892 
     68 H68        32.1989  -50.6662  -57.5699 H         1 UNK         0.0892 
     69 H69        30.8997  -49.8201  -56.7283 H         1 UNK         0.0892 
     70 H70        31.5008  -48.1448  -55.4025 H         1 UNK         0.3107 
     71 H71        32.4539  -46.4136  -54.5141 H         1 UNK         0.0773 
     72 H72        34.3773  -46.0921  -56.8765 H         1 UNK         0.0680 
     73 H73        32.7645  -45.4443  -56.8256 H         1 UNK         0.0680 
     74 H74        32.7867  -43.0211  -56.8025 H         1 UNK         0.0650 
     75 H75        33.3929  -42.0275  -55.5032 H         1 UNK         0.0650 
     76 H76        32.6815  -43.1187  -53.0206 H         1 UNK         0.1397 
     77 H77        28.4044  -43.4199  -52.8960 H         1 UNK         0.1363 
     78 H78        30.4252  -43.2720  -56.6675 H         1 UNK         0.1355 
     79 H79        27.2115  -43.9969  -54.9563 H         1 UNK         0.0707 
     80 H80        28.0274  -43.9939  -56.5023 H         1 UNK         0.0707 
     81 H81        25.1819  -42.9458  -56.0384 H         1 UNK         0.1034 
     82 H82        25.0396  -41.2617  -56.3966 H         1 UNK         0.1034 
     83 H83        24.5424  -42.1820  -58.4220 H         1 UNK         0.0482 
     84 H84        27.6126  -42.9634  -59.7522 H         1 UNK         0.3460 
     85 H85        27.9789  -41.3532  -60.3217 H         1 UNK         0.3460 
     86 H86        26.0358  -44.4705  -57.6882 H         1 UNK         0.2989 
     87 H87        24.6175  -46.3974  -58.9993 H         1 UNK         0.0559 
     88 H88        24.1398  -46.2366  -61.4186 H         1 UNK         0.0848 
     89 H89        25.1666  -47.6196  -61.0959 H         1 UNK         0.0848 
     90 H90        25.8566  -46.1503  -61.7872 H         1 UNK         0.0848 
     91 H91        27.3407  -46.7909  -59.9080 H         1 UNK         0.3144 
     92 H92        28.7329  -47.8365  -58.5887 H         1 UNK         0.0727 
     93 H93        29.3040  -46.0110  -56.2093 H         1 UNK         0.0790 
     94 H94        29.4225  -45.4623  -57.8808 H         1 UNK         0.0790 
     95 H95        30.4504  -46.7555  -57.3177 H         1 UNK         0.0790 
     96 H96        28.2044  -48.0539  -55.6667 H         1 UNK         0.3215 
     97 H97        26.8497  -51.2204  -55.9065 H         1 UNK         0.0863 
     98 H98        29.8064  -51.0730  -55.1207 H         1 UNK         0.0808 
     99 H99        29.1631  -52.0920  -56.4003 H         1 UNK         0.0808 
    100 H100       28.6664  -52.3563  -54.7392 H         1 UNK         0.0808 
    101 H101       28.2826  -49.7053  -53.8332 H         1 UNK         0.3118 
    102 H102       25.5544  -47.7955  -52.8627 H         1 UNK         0.0546 
    103 H103       26.2577  -50.4001  -51.4007 H         1 UNK         0.0828 
    104 H104       24.6448  -49.9166  -51.9041 H         1 UNK         0.0828 
    105 H105       25.4888  -48.9839  -50.6814 H         1 UNK         0.0828 
    106 H106       27.8908  -48.5243  -51.4068 H         1 UNK         0.3005 
    107 H107       30.1325  -46.2616  -53.0138 H         1 UNK         0.1257 
    108 H108       28.9832  -46.3446  -50.1728 H         1 UNK         0.0775 
    109 H109       28.5888  -45.0605  -51.2711 H         1 UNK         0.0775 
    110 H110       29.6801  -42.8858  -50.8524 H         1 UNK         0.0840 
    111 H111       31.4015  -42.6292  -50.9295 H         1 UNK         0.0840 
    112 H112       30.5141  -48.0596  -50.8471 H         1 UNK         0.2987 
    113 H113       31.9785  -49.8207  -51.1481 H         1 UNK         0.0785 
    114 H114       29.6104  -50.7409  -50.9753 H         1 UNK         0.0798 
    115 H115       30.7830  -52.0301  -51.1398 H         1 UNK         0.0798 
    116 H116       29.8160  -51.5417  -52.5271 H         1 UNK         0.0798 
    117 H117       32.3208  -50.2494  -53.9099 H         1 UNK         0.3079 
    118 H118       34.9448  -52.7060  -53.5955 H         1 UNK         0.0794 
    119 H119       34.0705  -52.9850  -55.9038 H         1 UNK         0.0786 
    120 H120       32.6372  -52.0378  -55.5100 H         1 UNK         0.0786 
    121 H121       32.9113  -53.5881  -54.7322 H         1 UNK         0.0786 
    122 H122       34.5328  -50.4147  -55.3275 H         1 UNK         0.3032 
    123 H123       36.7846  -48.2517  -53.6580 H         1 UNK         0.1094 
    124 H124       37.0696  -49.7083  -56.3468 H         1 UNK         0.0794 
    125 H125       37.8454  -48.1876  -55.9049 H         1 UNK         0.0794 
    126 H126       38.2817  -49.6709  -55.0728 H         1 UNK         0.0794 
    127 H127       35.1532  -48.1642  -56.0810 H         1 UNK         0.3016 
@<TRIPOS>BOND
     1    1    2 1    
     2    1   67 1    
     3    1   68 1    
     4    1   69 1    
     5    2    3 2    
     6    2    4 am   BACKBONE|DICT|INTERRES
     7    4    5 1    
     8    4   70 1    
     9    5    6 1    
    10    5   65 1    
    11    5   71 1    
    12    6    7 1    
    13    6   72 1    
    14    6   73 1    
    15    7    8 1    
    16    8    9 1    
    17    8   74 1    
    18    8   75 1    
    19    9   10 ar   
    20    9   14 ar   
    21   10   11 ar   
    22   10   76 1    
    23   11   12 ar   
    24   11   48 1    
    25   12   13 ar   
    26   12   77 1    
    27   13   14 ar   
    28   13   15 1    
    29   14   78 1    
    30   15   16 1    
    31   15   79 1    
    32   15   80 1    
    33   16   17 1    
    34   17   18 1    
    35   17   81 1    
    36   17   82 1    
    37   18   19 1    
    38   18   22 1    
    39   18   83 1    
    40   19   20 am   BACKBONE|DICT|INTERRES
    41   19   21 2    
    42   20   84 1    
    43   20   85 1    
    44   22   23 am   BACKBONE|DICT|INTERRES
    45   22   86 1    
    46   23   24 2    
    47   23   25 1    
    48   25   26 1    
    49   25   27 1    
    50   25   87 1    
    51   26   88 1    
    52   26   89 1    
    53   26   90 1    
    54   27   28 am   BACKBONE|DICT|INTERRES
    55   27   91 1    
    56   28   29 2    
    57   28   30 1    
    58   30   31 1    
    59   30   32 1    
    60   30   92 1    
    61   31   93 1    
    62   31   94 1    
    63   31   95 1    
    64   32   33 am   BACKBONE|DICT|INTERRES
    65   32   96 1    
    66   33   34 2    
    67   33   35 1    
    68   35   36 1    
    69   35   37 1    
    70   35   97 1    
    71   36   98 1    
    72   36   99 1    
    73   36  100 1    
    74   37   38 am   BACKBONE|DICT|INTERRES
    75   37  101 1    
    76   38   39 2    
    77   38   40 1    
    78   40   41 1    
    79   40   42 1    
    80   40  102 1    
    81   41  103 1    
    82   41  104 1    
    83   41  105 1    
    84   42   43 am   BACKBONE|DICT|INTERRES
    85   42  106 1    
    86   43   44 2    
    87   43   45 1    
    88   45   46 1    
    89   45   49 1    
    90   45  107 1    
    91   46   47 1    
    92   46  108 1    
    93   46  109 1    
    94   47   48 1    
    95   48  110 1    
    96   48  111 1    
    97   49   50 am   BACKBONE|DICT|INTERRES
    98   49  112 1    
    99   50   51 2    
   100   50   52 1    
   101   52   53 1    
   102   52   54 1    
   103   52  113 1    
   104   53  114 1    
   105   53  115 1    
   106   53  116 1    
   107   54   55 am   BACKBONE|DICT|INTERRES
   108   54  117 1    
   109   55   56 2    
   110   55   57 1    
   111   57   58 1    
   112   57   59 1    
   113   57  118 1    
   114   58  119 1    
   115   58  120 1    
   116   58  121 1    
   117   59   60 am   BACKBONE|DICT|INTERRES
   118   59  122 1    
   119   60   61 2    
   120   60   62 1    
   121   62   63 1    
   122   62   64 1    
   123   62  123 1    
   124   63  124 1    
   125   63  125 1    
   126   63  126 1    
   127   64   65 am   BACKBONE|DICT|INTERRES
   128   64  127 1    
   129   65   66 2    
@<TRIPOS>SUBSTRUCTURE
     1 UNK         1 GROUP             0       ****    0 ROOT    
