@<TRIPOS>MOLECULE
3R134
127   129    1
SMALL
USER_CHARGES


@<TRIPOS>ATOM
      1 CA         37.9965  -45.3975  -51.4159 C.3       0 UNK        -0.1968 
      2 C          36.5159  -45.5222  -51.7447 C.2       0 UNK         0.4852 
      3 O          35.6819  -45.0441  -50.9751 O.2       0 UNK        -0.5359 
      4 N          36.1930  -46.1696  -52.8751 N.am      1 UNK        -0.4300 
      5 CA         34.8398  -46.3850  -53.4140 C.3       1 UNK         0.0863 
      6 C6         34.1059  -45.0724  -53.7933 C.3       11 UNK        -0.0953 
      7 S7         34.9222  -44.1364  -55.1258 S.3       11 UNK        -0.2369 
      8 C8         34.0134  -42.5568  -55.0406 C.3       11 UNK         0.0226 
      9 C9         32.5038  -42.7626  -55.0638 C.ar      11 UNK        -0.0699 
     10 C10        31.7799  -42.7581  -53.8674 C.ar      11 UNK        -0.0804 
     11 C11        30.4040  -43.0022  -53.8620 C.ar      11 UNK        -0.0871 
     12 C12        29.7469  -43.2235  -55.0772 C.ar      11 UNK        -0.1008 
     13 C13        30.4582  -43.2215  -56.2822 C.ar      11 UNK        -0.0735 
     14 C14        31.8369  -42.9898  -56.2703 C.ar      11 UNK        -0.0945 
     15 C15        29.7347  -43.4880  -57.5915 C.3       11 UNK         0.0169 
     16 S16        28.6907  -42.0728  -58.0599 S.3       11 UNK        -0.2669 
     17 C17        27.7923  -42.7396  -59.5022 C.3       11 UNK        -0.0850 
     18 CA         26.3976  -43.3027  -59.1180 C.3       10 UNK         0.0855 
     19 C          25.5267  -43.5776  -60.3801 C.2       10 UNK         0.5543 
     20 N          25.0505  -44.7934  -60.6233 N.am      10 UNK        -0.7343 
     21 O          25.2692  -42.6594  -61.1546 O.2       10 UNK        -0.5027 
     22 N          26.5251  -44.4543  -58.2138 N.am      10 UNK        -0.4495 
     23 C          25.6117  -44.8522  -57.3219 C.2       10 UNK         0.4903 
     24 O          24.5653  -44.2432  -57.0941 O.2       10 UNK        -0.4860 
     25 CA         25.9329  -46.1568  -56.5608 C.3       9 UNK         0.0227 
     26 CB         24.6676  -46.8513  -56.0161 C.3       9 UNK        -0.1964 
     27 N          26.7478  -47.1153  -57.3246 N.am      9 UNK        -0.4231 
     28 C          26.4604  -47.6406  -58.5273 C.2       9 UNK         0.5014 
     29 O          25.4715  -47.3394  -59.1965 O.2       9 UNK        -0.5270 
     30 CA         27.4549  -48.6644  -59.0834 C.3       8 UNK         0.0284 
     31 CB         28.6971  -47.9639  -59.6621 C.3       8 UNK        -0.1977 
     32 N          27.8509  -49.6161  -58.0440 N.am      8 UNK        -0.4342 
     33 C          27.2757  -50.8122  -57.8663 C.2       8 UNK         0.5039 
     34 O          26.3735  -51.2554  -58.5789 O.2       8 UNK        -0.5547 
     35 CA         27.8059  -51.6751  -56.7130 C.3       7 UNK         0.0281 
     36 CB         29.1674  -52.2908  -57.0781 C.3       7 UNK        -0.1963 
     37 N          27.9207  -50.9536  -55.4453 N.am      7 UNK        -0.4444 
     38 C          26.8885  -50.5831  -54.6749 C.2       7 UNK         0.5104 
     39 O          25.7077  -50.7174  -54.9960 O.2       7 UNK        -0.5100 
     40 CA         27.2324  -49.9902  -53.2987 C.3       6 UNK         0.0396 
     41 CB         27.7058  -51.0905  -52.3341 C.3       6 UNK        -0.1801 
     42 N          28.2655  -48.9605  -53.4082 N.am      6 UNK        -0.4747 
     43 C          28.0155  -47.6458  -53.4956 C.2       6 UNK         0.5012 
     44 O          26.8858  -47.1685  -53.3929 O.2       6 UNK        -0.5003 
     45 CA         29.2107  -46.7009  -53.7747 C.3       5 UNK         0.0782 
     46 C46        29.6109  -45.8673  -52.5296 C.3       11 UNK        -0.0868 
     47 S47        28.5178  -44.4184  -52.3128 S.3       11 UNK        -0.2515 
     48 C48        29.6472  -43.0011  -52.5361 C.3       11 UNK         0.0199 
     49 N          30.3622  -47.3910  -54.3673 N.am      5 UNK        -0.4607 
     50 C          30.3559  -47.9041  -55.6043 C.2       4 UNK         0.5031 
     51 O          29.3775  -47.8592  -56.3522 O.2       4 UNK        -0.5119 
     52 CA         31.6240  -48.6282  -56.0807 C.3       4 UNK         0.0263 
     53 CB         32.6324  -47.6164  -56.6464 C.3       4 UNK        -0.1967 
     54 N          32.2746  -49.4722  -55.0699 N.am      4 UNK        -0.4237 
     55 C          31.6928  -50.4881  -54.4128 C.2       3 UNK         0.4908 
     56 O          30.4934  -50.7489  -54.4805 O.2       3 UNK        -0.5102 
     57 CA         32.5996  -51.3623  -53.5347 C.3       3 UNK         0.0241 
     58 CB         33.5141  -52.2468  -54.3986 C.3       3 UNK        -0.1971 
     59 N          33.4045  -50.5471  -52.6276 N.am      3 UNK        -0.4139 
     60 C          32.9584  -50.0584  -51.4624 C.2       2 UNK         0.5016 
     61 O          31.8709  -50.3468  -50.9616 O.2       2 UNK        -0.5319 
     62 CA         33.8712  -49.0405  -50.7559 C.3       2 UNK         0.0286 
     63 CB         34.9024  -49.7557  -49.8683 C.3       2 UNK        -0.1963 
     64 N          34.5640  -48.1314  -51.6791 N.am      2 UNK        -0.4790 
     65 C          33.9511  -47.2939  -52.5314 C.2       1 UNK         0.5024 
     66 O          32.7261  -47.2530  -52.6632 O.2       1 UNK        -0.4888 
     67 H67        38.2771  -44.3468  -51.3475 H         1 UNK         0.0892 
     68 H68        38.2093  -45.8702  -50.4574 H         1 UNK         0.0892 
     69 H69        38.6250  -45.8667  -52.1726 H         1 UNK         0.0892 
     70 H70        36.9393  -46.5319  -53.4528 H         1 UNK         0.3107 
     71 H71        34.9819  -46.9520  -54.3350 H         1 UNK         0.0773 
     72 H72        33.0958  -45.2847  -54.1470 H         1 UNK         0.0680 
     73 H73        33.9925  -44.4298  -52.9194 H         1 UNK         0.0680 
     74 H74        34.3141  -41.9276  -55.8794 H         1 UNK         0.0650 
     75 H75        34.3117  -42.0244  -54.1361 H         1 UNK         0.0650 
     76 H76        32.2973  -42.5837  -52.9339 H         1 UNK         0.1397 
     77 H77        28.6797  -43.3986  -55.0876 H         1 UNK         0.1363 
     78 H78        32.3957  -42.9995  -57.1961 H         1 UNK         0.1355 
     79 H79        30.4454  -43.6920  -58.3939 H         1 UNK         0.0707 
     80 H80        29.1288  -44.3867  -57.4789 H         1 UNK         0.0707 
     81 H81        27.6889  -41.9198  -60.2159 H         1 UNK         0.1034 
     82 H82        28.3960  -43.4973  -60.0051 H         1 UNK         0.1034 
     83 H83        25.8707  -42.5153  -58.5753 H         1 UNK         0.0482 
     84 H84        24.4858  -44.9410  -61.4443 H         1 UNK         0.3460 
     85 H85        25.2347  -45.5712  -59.9974 H         1 UNK         0.3460 
     86 H86        27.3352  -45.0371  -58.3517 H         1 UNK         0.2989 
     87 H87        26.5401  -45.8553  -55.7074 H         1 UNK         0.0559 
     88 H88        23.9829  -47.1298  -56.8177 H         1 UNK         0.0848 
     89 H89        24.1242  -46.1980  -55.3325 H         1 UNK         0.0848 
     90 H90        24.9212  -47.7551  -55.4614 H         1 UNK         0.0848 
     91 H91        27.6233  -47.3974  -56.8891 H         1 UNK         0.3144 
     92 H92        26.9653  -49.1926  -59.9046 H         1 UNK         0.0727 
     93 H93        29.2325  -47.3793  -58.9141 H         1 UNK         0.0790 
     94 H94        28.4170  -47.2819  -60.4662 H         1 UNK         0.0790 
     95 H95        29.3965  -48.6869  -60.0819 H         1 UNK         0.0790 
     96 H96        28.5461  -49.2954  -57.3772 H         1 UNK         0.3215 
     97 H97        27.0989  -52.4946  -56.5651 H         1 UNK         0.0863 
     98 H98        29.5115  -52.9770  -56.3040 H         1 UNK         0.0808 
     99 H99        29.9357  -51.5284  -57.2116 H         1 UNK         0.0808 
    100 H100       29.1036  -52.8572  -58.0082 H         1 UNK         0.0808 
    101 H101       28.8659  -50.8300  -55.0814 H         1 UNK         0.3118 
    102 H102       26.3181  -49.5623  -52.8819 H         1 UNK         0.0546 
    103 H103       26.9512  -51.8717  -52.2338 H         1 UNK         0.0828 
    104 H104       27.8897  -50.6884  -51.3378 H         1 UNK         0.0828 
    105 H105       28.6256  -51.5676  -52.6741 H         1 UNK         0.0828 
    106 H106       29.2155  -49.2850  -53.5447 H         1 UNK         0.3005 
    107 H107       28.8631  -46.0028  -54.5397 H         1 UNK         0.1257 
    108 H108       30.6363  -45.5080  -52.6280 H         1 UNK         0.0775 
    109 H109       29.5996  -46.4735  -51.6218 H         1 UNK         0.0775 
    110 H110       29.0678  -42.0797  -52.4677 H         1 UNK         0.0840 
    111 H111       30.3429  -42.9870  -51.6954 H         1 UNK         0.0840 
    112 H112       31.2003  -47.4603  -53.7951 H         1 UNK         0.2987 
    113 H113       31.3231  -49.2894  -56.8960 H         1 UNK         0.0785 
    114 H114       32.9937  -46.9327  -55.8793 H         1 UNK         0.0798 
    115 H115       32.1766  -47.0088  -57.4300 H         1 UNK         0.0798 
    116 H116       33.4950  -48.1154  -57.0881 H         1 UNK         0.0798 
    117 H117       33.2638  -49.3295  -54.9412 H         1 UNK         0.3079 
    118 H118       31.9570  -52.0223  -52.9473 H         1 UNK         0.0794 
    119 H119       34.2076  -51.6590  -55.0009 H         1 UNK         0.0786 
    120 H120       32.9269  -52.8607  -55.0832 H         1 UNK         0.0786 
    121 H121       34.1019  -52.9263  -53.7810 H         1 UNK         0.0786 
    122 H122       34.3217  -50.2657  -52.9408 H         1 UNK         0.3032 
    123 H123       33.2324  -48.4292  -50.1141 H         1 UNK         0.1094 
    124 H124       35.4858  -49.0432  -49.2847 H         1 UNK         0.0794 
    125 H125       34.4101  -50.4241  -49.1602 H         1 UNK         0.0794 
    126 H126       35.5963  -50.3578  -50.4561 H         1 UNK         0.0794 
    127 H127       35.5721  -48.1041  -51.6256 H         1 UNK         0.3016 
@<TRIPOS>BOND
     1    1    2 1    
     2    1   67 1    
     3    1   68 1    
     4    1   69 1    
     5    2    3 2    
     6    2    4 am   BACKBONE|DICT|INTERRES
     7    4    5 1    
     8    4   70 1    
     9    5    6 1    
    10    5   65 1    
    11    5   71 1    
    12    6    7 1    
    13    6   72 1    
    14    6   73 1    
    15    7    8 1    
    16    8    9 1    
    17    8   74 1    
    18    8   75 1    
    19    9   10 ar   
    20    9   14 ar   
    21   10   11 ar   
    22   10   76 1    
    23   11   12 ar   
    24   11   48 1    
    25   12   13 ar   
    26   12   77 1    
    27   13   14 ar   
    28   13   15 1    
    29   14   78 1    
    30   15   16 1    
    31   15   79 1    
    32   15   80 1    
    33   16   17 1    
    34   17   18 1    
    35   17   81 1    
    36   17   82 1    
    37   18   19 1    
    38   18   22 1    
    39   18   83 1    
    40   19   20 am   BACKBONE|DICT|INTERRES
    41   19   21 2    
    42   20   84 1    
    43   20   85 1    
    44   22   23 am   BACKBONE|DICT|INTERRES
    45   22   86 1    
    46   23   24 2    
    47   23   25 1    
    48   25   26 1    
    49   25   27 1    
    50   25   87 1    
    51   26   88 1    
    52   26   89 1    
    53   26   90 1    
    54   27   28 am   BACKBONE|DICT|INTERRES
    55   27   91 1    
    56   28   29 2    
    57   28   30 1    
    58   30   31 1    
    59   30   32 1    
    60   30   92 1    
    61   31   93 1    
    62   31   94 1    
    63   31   95 1    
    64   32   33 am   BACKBONE|DICT|INTERRES
    65   32   96 1    
    66   33   34 2    
    67   33   35 1    
    68   35   36 1    
    69   35   37 1    
    70   35   97 1    
    71   36   98 1    
    72   36   99 1    
    73   36  100 1    
    74   37   38 am   BACKBONE|DICT|INTERRES
    75   37  101 1    
    76   38   39 2    
    77   38   40 1    
    78   40   41 1    
    79   40   42 1    
    80   40  102 1    
    81   41  103 1    
    82   41  104 1    
    83   41  105 1    
    84   42   43 am   BACKBONE|DICT|INTERRES
    85   42  106 1    
    86   43   44 2    
    87   43   45 1    
    88   45   46 1    
    89   45   49 1    
    90   45  107 1    
    91   46   47 1    
    92   46  108 1    
    93   46  109 1    
    94   47   48 1    
    95   48  110 1    
    96   48  111 1    
    97   49   50 am   BACKBONE|DICT|INTERRES
    98   49  112 1    
    99   50   51 2    
   100   50   52 1    
   101   52   53 1    
   102   52   54 1    
   103   52  113 1    
   104   53  114 1    
   105   53  115 1    
   106   53  116 1    
   107   54   55 am   BACKBONE|DICT|INTERRES
   108   54  117 1    
   109   55   56 2    
   110   55   57 1    
   111   57   58 1    
   112   57   59 1    
   113   57  118 1    
   114   58  119 1    
   115   58  120 1    
   116   58  121 1    
   117   59   60 am   BACKBONE|DICT|INTERRES
   118   59  122 1    
   119   60   61 2    
   120   60   62 1    
   121   62   63 1    
   122   62   64 1    
   123   62  123 1    
   124   63  124 1    
   125   63  125 1    
   126   63  126 1    
   127   64   65 am   BACKBONE|DICT|INTERRES
   128   64  127 1    
   129   65   66 2    
@<TRIPOS>SUBSTRUCTURE
     1 UNK         1 GROUP             0       ****    0 ROOT    
