@<TRIPOS>MOLECULE
3R134
127   129    1
SMALL
USER_CHARGES


@<TRIPOS>ATOM
      1 CA         32.0632  -44.7044  -48.7597 C.3       0 UNK        -0.1968 
      2 C          32.8324  -45.6157  -49.7042 C.2       0 UNK         0.4852 
      3 O          33.5934  -46.4710  -49.2476 O.2       0 UNK        -0.5359 
      4 N          32.6323  -45.4516  -51.0182 N.am      1 UNK        -0.4300 
      5 CA         33.2835  -46.2171  -52.0897 C.3       1 UNK         0.0863 
      6 C6         33.3673  -45.3891  -53.3966 C.3       11 UNK        -0.0953 
      7 S7         34.5019  -43.9684  -53.2109 S.3       11 UNK        -0.2369 
      8 C8         33.3724  -42.5297  -53.2318 C.3       11 UNK         0.0226 
      9 C9         32.6070  -42.3423  -54.5414 C.ar      11 UNK        -0.0699 
     10 C10        33.1751  -42.6866  -55.7735 C.ar      11 UNK        -0.0804 
     11 C11        32.4281  -42.5945  -56.9490 C.ar      11 UNK        -0.0871 
     12 C12        31.1395  -42.0547  -56.9098 C.ar      11 UNK        -0.1008 
     13 C13        30.5576  -41.7045  -55.6894 C.ar      11 UNK        -0.0735 
     14 C14        31.2979  -41.8465  -54.5102 C.ar      11 UNK        -0.0945 
     15 C15        29.1132  -41.2231  -55.6411 C.3       11 UNK         0.0169 
     16 S16        27.9350  -42.6191  -55.6589 S.3       11 UNK        -0.2669 
     17 C17        27.8510  -43.0351  -57.4375 C.3       11 UNK        -0.0850 
     18 CA         26.4594  -43.5568  -57.8763 C.3       10 UNK         0.0855 
     19 C          26.3936  -43.7020  -59.4200 C.2       10 UNK         0.5543 
     20 N          25.7991  -42.7389  -60.1105 N.am      10 UNK        -0.7343 
     21 O          26.9202  -44.6515  -59.9963 O.2       10 UNK        -0.5027 
     22 N          26.1177  -44.8199  -57.2080 N.am      10 UNK        -0.4495 
     23 C          24.8789  -45.3196  -57.1244 C.2       10 UNK         0.4903 
     24 O          23.8786  -44.7473  -57.5620 O.2       10 UNK        -0.4860 
     25 CA         24.7415  -46.6746  -56.4075 C.3       9 UNK         0.0227 
     26 CB         23.2942  -47.2113  -56.3798 C.3       9 UNK        -0.1964 
     27 N          25.6705  -47.6827  -56.9253 N.am      9 UNK        -0.4231 
     28 C          25.7068  -48.2408  -58.1453 C.2       9 UNK         0.5014 
     29 O          24.9127  -47.9779  -59.0492 O.2       9 UNK        -0.5270 
     30 CA         26.8145  -49.2859  -58.4080 C.3       8 UNK         0.0284 
     31 CB         27.8720  -48.7209  -59.3707 C.3       8 UNK        -0.1977 
     32 N          27.4802  -49.7579  -57.1878 N.am      8 UNK        -0.4342 
     33 C          26.9212  -50.5564  -56.2658 C.2       8 UNK         0.5039 
     34 O          25.8242  -51.0983  -56.4020 O.2       8 UNK        -0.5547 
     35 CA         27.6869  -50.7216  -54.9421 C.3       7 UNK         0.0281 
     36 CB         28.6897  -51.8849  -55.0157 C.3       7 UNK        -0.1963 
     37 N          28.3730  -49.4806  -54.5658 N.am      7 UNK        -0.4444 
     38 C          27.7524  -48.4082  -54.0497 C.2       7 UNK         0.5104 
     39 O          26.5614  -48.3930  -53.7425 O.2       7 UNK        -0.5100 
     40 CA         28.5764  -47.1188  -53.8917 C.3       6 UNK         0.0396 
     41 CB         29.0868  -46.9735  -52.4512 C.3       6 UNK        -0.1801 
     42 N          29.6922  -47.0433  -54.8422 N.am      6 UNK        -0.4747 
     43 C          29.5260  -46.7400  -56.1400 C.2       6 UNK         0.5012 
     44 O          28.4289  -46.4767  -56.6316 O.2       6 UNK        -0.5003 
     45 CA         30.7715  -46.7402  -57.0537 C.3       5 UNK         0.0782 
     46 C46        31.3661  -45.3222  -57.0777 C.3       11 UNK        -0.0868 
     47 S47        32.8465  -45.0795  -58.1243 S.3       11 UNK        -0.2515 
     48 C48        32.9424  -43.2476  -58.2249 C.3       11 UNK         0.0199 
     49 N          31.7715  -47.7510  -56.7046 N.am      5 UNK        -0.4607 
     50 C          31.5515  -49.0686  -56.6546 C.2       4 UNK         0.5031 
     51 O          30.4359  -49.5719  -56.7998 O.2       4 UNK        -0.5119 
     52 CA         32.7551  -49.9798  -56.3816 C.3       4 UNK         0.0263 
     53 CB         34.0981  -49.2396  -56.1976 C.3       4 UNK        -0.1967 
     54 N          32.4579  -50.7582  -55.1874 N.am      4 UNK        -0.4237 
     55 C          32.8047  -52.0315  -54.9668 C.2       3 UNK         0.4908 
     56 O          33.4290  -52.7177  -55.7779 O.2       3 UNK        -0.5102 
     57 CA         32.3644  -52.6535  -53.6220 C.3       3 UNK         0.0241 
     58 CB         33.4094  -53.6409  -53.0588 C.3       3 UNK        -0.1971 
     59 N          31.9666  -51.6639  -52.6064 N.am      3 UNK        -0.4139 
     60 C          32.7410  -50.7225  -52.0455 C.2       2 UNK         0.5016 
     61 O          33.9537  -50.6076  -52.2385 O.2       2 UNK        -0.5319 
     62 CA         32.0210  -49.7330  -51.1158 C.3       2 UNK         0.0286 
     63 CB         32.0909  -50.2131  -49.6576 C.3       2 UNK        -0.1963 
     64 N          32.5844  -48.3845  -51.1994 N.am      2 UNK        -0.4790 
     65 C          32.6016  -47.5916  -52.2800 C.2       1 UNK         0.5024 
     66 O          32.0783  -47.8922  -53.3579 O.2       1 UNK        -0.4888 
     67 H67        32.7566  -44.1359  -48.1407 H         1 UNK         0.0892 
     68 H68        31.4266  -45.2968  -48.1030 H         1 UNK         0.0892 
     69 H69        31.4317  -43.9977  -49.2977 H         1 UNK         0.0892 
     70 H70        31.9766  -44.7502  -51.3289 H         1 UNK         0.3107 
     71 H71        34.3084  -46.4377  -51.7820 H         1 UNK         0.0773 
     72 H72        33.7526  -45.9982  -54.2166 H         1 UNK         0.0680 
     73 H73        32.3778  -45.0501  -53.7074 H         1 UNK         0.0680 
     74 H74        32.6780  -42.6272  -52.3962 H         1 UNK         0.0650 
     75 H75        33.9575  -41.6288  -53.0440 H         1 UNK         0.0650 
     76 H76        34.1689  -43.1098  -55.8158 H         1 UNK         0.1397 
     77 H77        30.5575  -41.9894  -57.8182 H         1 UNK         0.1363 
     78 H78        30.8436  -41.5907  -53.5627 H         1 UNK         0.1355 
     79 H79        28.9473  -40.6430  -54.7320 H         1 UNK         0.0707 
     80 H80        28.9100  -40.5441  -56.4704 H         1 UNK         0.0707 
     81 H81        28.6132  -43.7779  -57.6642 H         1 UNK         0.1034 
     82 H82        28.1096  -42.1457  -58.0148 H         1 UNK         0.1034 
     83 H83        25.7195  -42.8127  -57.5733 H         1 UNK         0.0482 
     84 H84        25.3704  -41.9527  -59.6469 H         1 UNK         0.3460 
     85 H85        25.7626  -42.8077  -61.1155 H         1 UNK         0.3460 
     86 H86        26.9024  -45.3827  -56.8898 H         1 UNK         0.2989 
     87 H87        25.0398  -46.4988  -55.3729 H         1 UNK         0.0559 
     88 H88        23.2324  -48.1555  -55.8386 H         1 UNK         0.0848 
     89 H89        22.8996  -47.3728  -57.3833 H         1 UNK         0.0848 
     90 H90        22.6277  -46.5074  -55.8800 H         1 UNK         0.0848 
     91 H91        26.4070  -47.9500  -56.2881 H         1 UNK         0.3144 
     92 H92        26.3430  -50.1461  -58.8876 H         1 UNK         0.0727 
     93 H93        28.6633  -49.4447  -59.5669 H         1 UNK         0.0790 
     94 H94        28.3318  -47.8147  -58.9775 H         1 UNK         0.0790 
     95 H95        27.4231  -48.4617  -60.3305 H         1 UNK         0.0790 
     96 H96        28.4303  -49.4364  -57.0285 H         1 UNK         0.3215 
     97 H97        26.9560  -50.9612  -54.1662 H         1 UNK         0.0863 
     98 H98        29.1975  -52.0283  -54.0628 H         1 UNK         0.0808 
     99 H99        28.1785  -52.8193  -55.2512 H         1 UNK         0.0808 
    100 H100       29.4471  -51.7314  -55.7839 H         1 UNK         0.0808 
    101 H101       29.3331  -49.3807  -54.8667 H         1 UNK         0.3118 
    102 H102       27.9086  -46.2759  -54.0851 H         1 UNK         0.0546 
    103 H103       28.2527  -46.8745  -51.7553 H         1 UNK         0.0828 
    104 H104       29.7120  -46.0884  -52.3353 H         1 UNK         0.0828 
    105 H105       29.6621  -47.8424  -52.1371 H         1 UNK         0.0828 
    106 H106       30.6197  -47.2659  -54.4894 H         1 UNK         0.3005 
    107 H107       30.4249  -46.9767  -58.0617 H         1 UNK         0.1257 
    108 H108       31.6161  -45.0135  -56.0611 H         1 UNK         0.0775 
    109 H109       30.6068  -44.6315  -57.4370 H         1 UNK         0.0775 
    110 H110       33.9751  -42.9476  -58.4086 H         1 UNK         0.0840 
    111 H111       32.3654  -42.9095  -59.0870 H         1 UNK         0.0840 
    112 H112       32.7109  -47.4099  -56.5632 H         1 UNK         0.2987 
    113 H113       32.8377  -50.6454  -57.2433 H         1 UNK         0.0785 
    114 H114       34.0800  -48.5695  -55.3367 H         1 UNK         0.0798 
    115 H115       34.3561  -48.6533  -57.0806 H         1 UNK         0.0798 
    116 H116       34.9122  -49.9475  -56.0401 H         1 UNK         0.0798 
    117 H117       31.9476  -50.2659  -54.4683 H         1 UNK         0.3079 
    118 H118       31.4655  -53.2293  -53.8471 H         1 UNK         0.0794 
    119 H119       34.3724  -53.1594  -52.8868 H         1 UNK         0.0786 
    120 H120       33.5809  -54.4667  -53.7504 H         1 UNK         0.0786 
    121 H121       33.0778  -54.0751  -52.1157 H         1 UNK         0.0786 
    122 H122       30.9899  -51.6888  -52.3470 H         1 UNK         0.3032 
    123 H123       30.9725  -49.6732  -51.4129 H         1 UNK         0.1094 
    124 H124       33.1208  -50.2700  -49.3023 H         1 UNK         0.0794 
    125 H125       31.5438  -49.5445  -48.9925 H         1 UNK         0.0794 
    126 H126       31.6531  -51.2064  -49.5489 H         1 UNK         0.0794 
    127 H127       33.0333  -48.0236  -50.3627 H         1 UNK         0.3016 
@<TRIPOS>BOND
     1    1    2 1    
     2    1   67 1    
     3    1   68 1    
     4    1   69 1    
     5    2    3 2    
     6    2    4 am   BACKBONE|DICT|INTERRES
     7    4    5 1    
     8    4   70 1    
     9    5    6 1    
    10    5   65 1    
    11    5   71 1    
    12    6    7 1    
    13    6   72 1    
    14    6   73 1    
    15    7    8 1    
    16    8    9 1    
    17    8   74 1    
    18    8   75 1    
    19    9   10 ar   
    20    9   14 ar   
    21   10   11 ar   
    22   10   76 1    
    23   11   12 ar   
    24   11   48 1    
    25   12   13 ar   
    26   12   77 1    
    27   13   14 ar   
    28   13   15 1    
    29   14   78 1    
    30   15   16 1    
    31   15   79 1    
    32   15   80 1    
    33   16   17 1    
    34   17   18 1    
    35   17   81 1    
    36   17   82 1    
    37   18   19 1    
    38   18   22 1    
    39   18   83 1    
    40   19   20 am   BACKBONE|DICT|INTERRES
    41   19   21 2    
    42   20   84 1    
    43   20   85 1    
    44   22   23 am   BACKBONE|DICT|INTERRES
    45   22   86 1    
    46   23   24 2    
    47   23   25 1    
    48   25   26 1    
    49   25   27 1    
    50   25   87 1    
    51   26   88 1    
    52   26   89 1    
    53   26   90 1    
    54   27   28 am   BACKBONE|DICT|INTERRES
    55   27   91 1    
    56   28   29 2    
    57   28   30 1    
    58   30   31 1    
    59   30   32 1    
    60   30   92 1    
    61   31   93 1    
    62   31   94 1    
    63   31   95 1    
    64   32   33 am   BACKBONE|DICT|INTERRES
    65   32   96 1    
    66   33   34 2    
    67   33   35 1    
    68   35   36 1    
    69   35   37 1    
    70   35   97 1    
    71   36   98 1    
    72   36   99 1    
    73   36  100 1    
    74   37   38 am   BACKBONE|DICT|INTERRES
    75   37  101 1    
    76   38   39 2    
    77   38   40 1    
    78   40   41 1    
    79   40   42 1    
    80   40  102 1    
    81   41  103 1    
    82   41  104 1    
    83   41  105 1    
    84   42   43 am   BACKBONE|DICT|INTERRES
    85   42  106 1    
    86   43   44 2    
    87   43   45 1    
    88   45   46 1    
    89   45   49 1    
    90   45  107 1    
    91   46   47 1    
    92   46  108 1    
    93   46  109 1    
    94   47   48 1    
    95   48  110 1    
    96   48  111 1    
    97   49   50 am   BACKBONE|DICT|INTERRES
    98   49  112 1    
    99   50   51 2    
   100   50   52 1    
   101   52   53 1    
   102   52   54 1    
   103   52  113 1    
   104   53  114 1    
   105   53  115 1    
   106   53  116 1    
   107   54   55 am   BACKBONE|DICT|INTERRES
   108   54  117 1    
   109   55   56 2    
   110   55   57 1    
   111   57   58 1    
   112   57   59 1    
   113   57  118 1    
   114   58  119 1    
   115   58  120 1    
   116   58  121 1    
   117   59   60 am   BACKBONE|DICT|INTERRES
   118   59  122 1    
   119   60   61 2    
   120   60   62 1    
   121   62   63 1    
   122   62   64 1    
   123   62  123 1    
   124   63  124 1    
   125   63  125 1    
   126   63  126 1    
   127   64   65 am   BACKBONE|DICT|INTERRES
   128   64  127 1    
   129   65   66 2    
@<TRIPOS>SUBSTRUCTURE
     1 UNK         1 GROUP             0       ****    0 ROOT    
