@<TRIPOS>MOLECULE
3R134
127   129    1
SMALL
USER_CHARGES


@<TRIPOS>ATOM
      1 CA         34.5300  -42.6314  -49.8443 C.3       0 UNK        -0.1968 
      2 C          34.1025  -43.7547  -50.7777 C.2       0 UNK         0.4852 
      3 O          34.8740  -44.1473  -51.6546 O.2       0 UNK        -0.5359 
      4 N          32.8779  -44.2666  -50.6011 N.am      1 UNK        -0.4300 
      5 CA         32.3121  -45.3764  -51.3734 C.3       1 UNK         0.0863 
      6 C6         30.7820  -45.5129  -51.1594 C.3       11 UNK        -0.0953 
      7 S7         29.8342  -43.9735  -51.4276 S.3       11 UNK        -0.2369 
      8 C8         28.9308  -44.3086  -52.9738 C.3       11 UNK         0.0226 
      9 C9         29.6441  -43.7110  -54.1752 C.ar      11 UNK        -0.0699 
     10 C10        30.7791  -44.3286  -54.7089 C.ar      11 UNK        -0.0804 
     11 C11        31.4528  -43.7575  -55.7923 C.ar      11 UNK        -0.0871 
     12 C12        30.9614  -42.5805  -56.3647 C.ar      11 UNK        -0.1008 
     13 C13        29.8172  -41.9638  -55.8510 C.ar      11 UNK        -0.0735 
     14 C14        29.1685  -42.5290  -54.7503 C.ar      11 UNK        -0.0945 
     15 C15        29.2997  -40.6703  -56.4644 C.3       11 UNK         0.0169 
     16 S16        27.6973  -40.8869  -57.3027 S.3       11 UNK        -0.2669 
     17 C17        28.1346  -41.9889  -58.6915 C.3       11 UNK        -0.0850 
     18 CA         27.1351  -43.1628  -58.8633 C.3       10 UNK         0.0855 
     19 C          27.4411  -43.9487  -60.1623 C.2       10 UNK         0.5543 
     20 N          26.8333  -43.5669  -61.2767 N.am      10 UNK        -0.7343 
     21 O          28.2494  -44.8752  -60.1767 O.2       10 UNK        -0.5027 
     22 N          27.1517  -44.0883  -57.7240 N.am      10 UNK        -0.4495 
     23 C          26.1760  -44.2338  -56.8212 C.2       10 UNK         0.4903 
     24 O          25.1826  -43.5074  -56.7505 O.2       10 UNK        -0.4860 
     25 CA         26.3314  -45.4289  -55.8604 C.3       9 UNK         0.0227 
     26 CB         25.1266  -45.6172  -54.9159 C.3       9 UNK        -0.1964 
     27 N          26.6352  -46.6790  -56.5681 N.am      9 UNK        -0.4231 
     28 C          25.9174  -47.2707  -57.5371 C.2       9 UNK         0.5014 
     29 O          24.8380  -46.8525  -57.9583 O.2       9 UNK        -0.5270 
     30 CA         26.5102  -48.5508  -58.1509 C.3       8 UNK         0.0284 
     31 CB         27.6218  -48.2054  -59.1552 C.3       8 UNK        -0.1977 
     32 N          27.0275  -49.4821  -57.1464 N.am      8 UNK        -0.4342 
     33 C          26.2681  -50.1781  -56.2881 C.2       8 UNK         0.5039 
     34 O          25.0367  -50.1505  -56.2809 O.2       8 UNK        -0.5547 
     35 CA         27.0065  -51.0462  -55.2534 C.3       7 UNK         0.0281 
     36 CB         27.4598  -52.3799  -55.8691 C.3       7 UNK        -0.1963 
     37 N          28.1516  -50.3495  -54.6626 N.am      7 UNK        -0.4444 
     38 C          28.0418  -49.2954  -53.8416 C.2       7 UNK         0.5104 
     39 O          26.9699  -48.8523  -53.4292 O.2       7 UNK        -0.5100 
     40 CA         29.3466  -48.6026  -53.4207 C.3       6 UNK         0.0396 
     41 CB         29.9163  -49.2555  -52.1514 C.3       6 UNK        -0.1801 
     42 N          30.3542  -48.5761  -54.4866 N.am      6 UNK        -0.4747 
     43 C          30.2248  -47.8874  -55.6325 C.2       6 UNK         0.5012 
     44 O          29.2766  -47.1440  -55.8744 O.2       6 UNK        -0.5003 
     45 CA         31.2918  -48.1241  -56.7185 C.3       5 UNK         0.0782 
     46 C46        32.5237  -47.1998  -56.5477 C.3       11 UNK        -0.0868 
     47 S47        32.3939  -45.6824  -57.5503 S.3       11 UNK        -0.2515 
     48 C48        32.7329  -44.3803  -56.3268 C.3       11 UNK         0.0199 
     49 N          31.6731  -49.5361  -56.7837 N.am      5 UNK        -0.4607 
     50 C          30.8616  -50.5155  -57.2052 C.2       4 UNK         0.5031 
     51 O          29.7236  -50.3155  -57.6268 O.2       4 UNK        -0.5119 
     52 CA         31.3806  -51.9605  -57.1096 C.3       4 UNK         0.0263 
     53 CB         31.9405  -52.4184  -58.4652 C.3       4 UNK        -0.1967 
     54 N          32.3994  -52.1469  -56.0734 N.am      4 UNK        -0.4237 
     55 C          32.1909  -52.0031  -54.7571 C.2       3 UNK         0.4908 
     56 O          31.0879  -51.7430  -54.2722 O.2       3 UNK        -0.5102 
     57 CA         33.4150  -52.1589  -53.8286 C.3       3 UNK         0.0241 
     58 CB         34.7602  -52.2905  -54.5810 C.3       3 UNK        -0.1971 
     59 N          33.5258  -51.0966  -52.8190 N.am      3 UNK        -0.4139 
     60 C          33.5074  -49.7713  -53.0245 C.2       2 UNK         0.5016 
     61 O          33.2762  -49.2327  -54.1107 O.2       2 UNK        -0.5319 
     62 CA         33.8387  -48.8970  -51.8096 C.3       2 UNK         0.0286 
     63 CB         35.3644  -48.7925  -51.6209 C.3       2 UNK        -0.1963 
     64 N          33.2653  -47.5639  -51.9939 N.am      2 UNK        -0.4790 
     65 C          33.0092  -46.7029  -51.0015 C.2       1 UNK         0.5024 
     66 O          33.2604  -46.9403  -49.8169 O.2       1 UNK        -0.4888 
     67 H67        34.7696  -41.7370  -50.4188 H         1 UNK         0.0892 
     68 H68        35.4176  -42.9260  -49.2851 H         1 UNK         0.0892 
     69 H69        33.7483  -42.3753  -49.1293 H         1 UNK         0.0892 
     70 H70        32.2900  -43.9121  -49.8606 H         1 UNK         0.3107 
     71 H71        32.5024  -45.1706  -52.4277 H         1 UNK         0.0773 
     72 H72        30.5701  -45.8386  -50.1389 H         1 UNK         0.0680 
     73 H73        30.3869  -46.2947  -51.8051 H         1 UNK         0.0680 
     74 H74        28.7783  -45.3757  -53.1212 H         1 UNK         0.0650 
     75 H75        27.9315  -43.8803  -52.8821 H         1 UNK         0.0650 
     76 H76        31.1424  -45.2470  -54.2729 H         1 UNK         0.1397 
     77 H77        31.4780  -42.1381  -57.2057 H         1 UNK         0.1363 
     78 H78        28.2903  -42.0451  -54.3450 H         1 UNK         0.1355 
     79 H79        30.0200  -40.2569  -57.1722 H         1 UNK         0.0707 
     80 H80        29.1851  -39.9247  -55.6763 H         1 UNK         0.0707 
     81 H81        29.1477  -42.3734  -58.5650 H         1 UNK         0.1034 
     82 H82        28.1593  -41.3753  -59.5942 H         1 UNK         0.1034 
     83 H83        26.1329  -42.7427  -58.9716 H         1 UNK         0.0482 
     84 H84        26.1761  -42.8021  -61.2789 H         1 UNK         0.3460 
     85 H85        27.0317  -44.0581  -62.1345 H         1 UNK         0.3460 
     86 H86        27.9077  -44.7592  -57.7363 H         1 UNK         0.2989 
     87 H87        27.2030  -45.2122  -55.2421 H         1 UNK         0.0559 
     88 H88        25.2916  -46.4464  -54.2275 H         1 UNK         0.0848 
     89 H89        24.2073  -45.8170  -55.4673 H         1 UNK         0.0848 
     90 H90        24.9590  -44.7234  -54.3139 H         1 UNK         0.0848 
     91 H91        27.5447  -47.0767  -56.3351 H         1 UNK         0.3144 
     92 H92        25.7116  -49.0588  -58.6958 H         1 UNK         0.0727 
     93 H93        28.0044  -49.0997  -59.6474 H         1 UNK         0.0790 
     94 H94        28.4621  -47.7034  -58.6742 H         1 UNK         0.0790 
     95 H95        27.2491  -47.5398  -59.9350 H         1 UNK         0.0790 
     96 H96        28.0331  -49.6384  -57.1425 H         1 UNK         0.3215 
     97 H97        26.3036  -51.2717  -54.4481 H         1 UNK         0.0863 
     98 H98        27.9884  -52.9961  -55.1414 H         1 UNK         0.0808 
     99 H99        28.1163  -52.2328  -56.7260 H         1 UNK         0.0808 
    100 H100       26.6008  -52.9545  -56.2179 H         1 UNK         0.0808 
    101 H101       29.0786  -50.6723  -54.9088 H         1 UNK         0.3118 
    102 H102       29.0904  -47.5722  -53.1823 H         1 UNK         0.0546 
    103 H103       29.1756  -49.2551  -51.3506 H         1 UNK         0.0828 
    104 H104       30.7854  -48.7193  -51.7786 H         1 UNK         0.0828 
    105 H105       30.2071  -50.2920  -52.3191 H         1 UNK         0.0828 
    106 H106       31.1687  -49.1708  -54.3750 H         1 UNK         0.3005 
    107 H107       30.8168  -47.8950  -57.6757 H         1 UNK         0.1257 
    108 H108       33.4284  -47.7069  -56.8873 H         1 UNK         0.0775 
    109 H109       32.7095  -46.9626  -55.4990 H         1 UNK         0.0775 
    110 H110       33.3421  -44.7633  -55.5069 H         1 UNK         0.0840 
    111 H111       33.3423  -43.6129  -56.8069 H         1 UNK         0.0840 
    112 H112       32.5717  -49.7771  -56.3884 H         1 UNK         0.2987 
    113 H113       30.5307  -52.5978  -56.8580 H         1 UNK         0.0785 
    114 H114       32.8088  -51.8299  -58.7644 H         1 UNK         0.0798 
    115 H115       31.1906  -52.3151  -59.2510 H         1 UNK         0.0798 
    116 H116       32.2365  -53.4673  -58.4395 H         1 UNK         0.0798 
    117 H117       33.3346  -52.3613  -56.3883 H         1 UNK         0.3079 
    118 H118       33.2514  -53.0871  -53.2791 H         1 UNK         0.0794 
    119 H119       34.9814  -51.4058  -55.1802 H         1 UNK         0.0786 
    120 H120       34.7709  -53.1594  -55.2403 H         1 UNK         0.0786 
    121 H121       35.5856  -52.4226  -53.8810 H         1 UNK         0.0786 
    122 H122       33.6825  -51.4242  -51.8760 H         1 UNK         0.3032 
    123 H123       33.3913  -49.3571  -50.9252 H         1 UNK         0.1094 
    124 H124       35.8417  -48.3174  -52.4790 H         1 UNK         0.0794 
    125 H125       35.6196  -48.2121  -50.7341 H         1 UNK         0.0794 
    126 H126       35.8164  -49.7779  -51.4998 H         1 UNK         0.0794 
    127 H127       33.0214  -47.3474  -52.9521 H         1 UNK         0.3016 
@<TRIPOS>BOND
     1    1    2 1    
     2    1   67 1    
     3    1   68 1    
     4    1   69 1    
     5    2    3 2    
     6    2    4 am   BACKBONE|DICT|INTERRES
     7    4    5 1    
     8    4   70 1    
     9    5    6 1    
    10    5   65 1    
    11    5   71 1    
    12    6    7 1    
    13    6   72 1    
    14    6   73 1    
    15    7    8 1    
    16    8    9 1    
    17    8   74 1    
    18    8   75 1    
    19    9   10 ar   
    20    9   14 ar   
    21   10   11 ar   
    22   10   76 1    
    23   11   12 ar   
    24   11   48 1    
    25   12   13 ar   
    26   12   77 1    
    27   13   14 ar   
    28   13   15 1    
    29   14   78 1    
    30   15   16 1    
    31   15   79 1    
    32   15   80 1    
    33   16   17 1    
    34   17   18 1    
    35   17   81 1    
    36   17   82 1    
    37   18   19 1    
    38   18   22 1    
    39   18   83 1    
    40   19   20 am   BACKBONE|DICT|INTERRES
    41   19   21 2    
    42   20   84 1    
    43   20   85 1    
    44   22   23 am   BACKBONE|DICT|INTERRES
    45   22   86 1    
    46   23   24 2    
    47   23   25 1    
    48   25   26 1    
    49   25   27 1    
    50   25   87 1    
    51   26   88 1    
    52   26   89 1    
    53   26   90 1    
    54   27   28 am   BACKBONE|DICT|INTERRES
    55   27   91 1    
    56   28   29 2    
    57   28   30 1    
    58   30   31 1    
    59   30   32 1    
    60   30   92 1    
    61   31   93 1    
    62   31   94 1    
    63   31   95 1    
    64   32   33 am   BACKBONE|DICT|INTERRES
    65   32   96 1    
    66   33   34 2    
    67   33   35 1    
    68   35   36 1    
    69   35   37 1    
    70   35   97 1    
    71   36   98 1    
    72   36   99 1    
    73   36  100 1    
    74   37   38 am   BACKBONE|DICT|INTERRES
    75   37  101 1    
    76   38   39 2    
    77   38   40 1    
    78   40   41 1    
    79   40   42 1    
    80   40  102 1    
    81   41  103 1    
    82   41  104 1    
    83   41  105 1    
    84   42   43 am   BACKBONE|DICT|INTERRES
    85   42  106 1    
    86   43   44 2    
    87   43   45 1    
    88   45   46 1    
    89   45   49 1    
    90   45  107 1    
    91   46   47 1    
    92   46  108 1    
    93   46  109 1    
    94   47   48 1    
    95   48  110 1    
    96   48  111 1    
    97   49   50 am   BACKBONE|DICT|INTERRES
    98   49  112 1    
    99   50   51 2    
   100   50   52 1    
   101   52   53 1    
   102   52   54 1    
   103   52  113 1    
   104   53  114 1    
   105   53  115 1    
   106   53  116 1    
   107   54   55 am   BACKBONE|DICT|INTERRES
   108   54  117 1    
   109   55   56 2    
   110   55   57 1    
   111   57   58 1    
   112   57   59 1    
   113   57  118 1    
   114   58  119 1    
   115   58  120 1    
   116   58  121 1    
   117   59   60 am   BACKBONE|DICT|INTERRES
   118   59  122 1    
   119   60   61 2    
   120   60   62 1    
   121   62   63 1    
   122   62   64 1    
   123   62  123 1    
   124   63  124 1    
   125   63  125 1    
   126   63  126 1    
   127   64   65 am   BACKBONE|DICT|INTERRES
   128   64  127 1    
   129   65   66 2    
@<TRIPOS>SUBSTRUCTURE
     1 UNK         1 GROUP             0       ****    0 ROOT    
