@<TRIPOS>MOLECULE
3R134
127   129    1
SMALL
USER_CHARGES


@<TRIPOS>ATOM
      1 CA         35.1622  -46.8773  -50.6869 C.3       0 UNK        -0.1968 
      2 C          35.2981  -47.0020  -52.1969 C.2       0 UNK         0.4852 
      3 O          36.2641  -47.5954  -52.6802 O.2       0 UNK        -0.5359 
      4 N          34.3237  -46.4724  -52.9452 N.am      1 UNK        -0.4300 
      5 CA         34.2396  -46.5477  -54.4049 C.3       1 UNK         0.0863 
      6 C6         33.2207  -45.5324  -54.9718 C.3       11 UNK        -0.0953 
      7 S7         33.8108  -43.8150  -54.8094 S.3       11 UNK        -0.2369 
      8 C8         32.9562  -43.2354  -53.3026 C.3       11 UNK         0.0226 
      9 C9         31.4347  -43.1779  -53.4190 C.ar      11 UNK        -0.0699 
     10 C10        30.6468  -43.5408  -52.3215 C.ar      11 UNK        -0.0804 
     11 C11        29.2512  -43.4915  -52.3978 C.ar      11 UNK        -0.0871 
     12 C12        28.6415  -43.0621  -53.5807 C.ar      11 UNK        -0.1008 
     13 C13        29.4154  -42.6851  -54.6806 C.ar      11 UNK        -0.0735 
     14 C14        30.8091  -42.7394  -54.5923 C.ar      11 UNK        -0.0945 
     15 C15        28.7491  -42.2104  -55.9622 C.3       11 UNK         0.0169 
     16 S16        28.3884  -43.6061  -57.0703 S.3       11 UNK        -0.2669 
     17 C17        27.8558  -42.7312  -58.5828 C.3       11 UNK        -0.0850 
     18 CA         26.3556  -42.9628  -58.9334 C.3       10 UNK         0.0855 
     19 C          25.8636  -42.0369  -60.0891 C.2       10 UNK         0.5543 
     20 N          24.9437  -42.4737  -60.9412 N.am      10 UNK        -0.7343 
     21 O          26.2947  -40.8915  -60.1993 O.2       10 UNK        -0.5027 
     22 N          26.0014  -44.3860  -59.1008 N.am      10 UNK        -0.4495 
     23 C          26.5028  -45.2386  -60.0048 C.2       10 UNK         0.4903 
     24 O          27.3711  -44.9341  -60.8241 O.2       10 UNK        -0.4860 
     25 CA         25.9226  -46.6691  -59.9991 C.3       9 UNK         0.0227 
     26 CB         26.7027  -47.6270  -60.9189 C.3       9 UNK        -0.1964 
     27 N          25.8535  -47.2428  -58.6498 N.am      9 UNK        -0.4231 
     28 C          24.8707  -47.0095  -57.7656 C.2       9 UNK         0.5014 
     29 O          23.9295  -46.2503  -58.0053 O.2       9 UNK        -0.5270 
     30 CA         24.9562  -47.6649  -56.3726 C.3       8 UNK         0.0284 
     31 CB         23.5842  -48.1545  -55.8610 C.3       8 UNK        -0.1977 
     32 N          25.9835  -48.7047  -56.2559 N.am      8 UNK        -0.4342 
     33 C          26.0054  -49.9258  -56.8137 C.2       8 UNK         0.5039 
     34 O          25.0831  -50.3899  -57.4858 O.2       8 UNK        -0.5547 
     35 CA         27.2905  -50.7601  -56.5965 C.3       7 UNK         0.0281 
     36 CB         27.5024  -51.8187  -57.7002 C.3       7 UNK        -0.1963 
     37 N          28.5028  -49.9423  -56.4289 N.am      7 UNK        -0.4444 
     38 C          28.9752  -49.0263  -57.2886 C.2       7 UNK         0.5104 
     39 O          28.4636  -48.7980  -58.3850 O.2       7 UNK        -0.5100 
     40 CA         30.1694  -48.1770  -56.8060 C.3       6 UNK         0.0396 
     41 CB         30.3325  -46.8917  -57.6426 C.3       6 UNK        -0.1801 
     42 N          30.1276  -47.8427  -55.3726 N.am      6 UNK        -0.4747 
     43 C          29.1264  -47.2444  -54.7041 C.2       6 UNK         0.5012 
     44 O          28.0316  -46.9947  -55.2085 O.2       6 UNK        -0.5003 
     45 CA         29.3740  -46.9306  -53.2170 C.3       5 UNK         0.0782 
     46 C46        28.1018  -46.4199  -52.4861 C.3       11 UNK        -0.0868 
     47 S47        28.5057  -45.6973  -50.8603 S.3       11 UNK        -0.2515 
     48 C48        28.3983  -43.9095  -51.2060 C.3       11 UNK         0.0199 
     49 N          29.9340  -48.1173  -52.5673 N.am      5 UNK        -0.4607 
     50 C          31.0672  -48.1584  -51.8591 C.2       4 UNK         0.5031 
     51 O          31.7897  -47.1794  -51.6621 O.2       4 UNK        -0.5119 
     52 CA         31.4814  -49.5239  -51.2868 C.3       4 UNK         0.0263 
     53 CB         30.5218  -50.6863  -51.6332 C.3       4 UNK        -0.1967 
     54 N          32.8312  -49.8374  -51.7498 N.am      4 UNK        -0.4237 
     55 C          33.6990  -50.6371  -51.1136 C.2       3 UNK         0.4908 
     56 O          33.4395  -51.1953  -50.0461 O.2       3 UNK        -0.5102 
     57 CA         35.0995  -50.8340  -51.7355 C.3       3 UNK         0.0241 
     58 CB         35.6412  -52.2663  -51.5358 C.3       3 UNK        -0.1971 
     59 N          35.2052  -50.4113  -53.1378 N.am      3 UNK        -0.4139 
     60 C          34.6177  -50.9601  -54.2147 C.2       2 UNK         0.5016 
     61 O          33.9371  -51.9862  -54.1821 O.2       2 UNK        -0.5319 
     62 CA         34.7946  -50.1926  -55.5451 C.3       2 UNK         0.0286 
     63 CB         33.7349  -50.5758  -56.6013 C.3       2 UNK        -0.1963 
     64 N          34.8351  -48.7344  -55.3456 N.am      2 UNK        -0.4790 
     65 C          33.8702  -47.9896  -54.7862 C.2       1 UNK         0.5024 
     66 O          32.7583  -48.4246  -54.4836 O.2       1 UNK        -0.4888 
     67 H67        35.1392  -47.8638  -50.2259 H         1 UNK         0.0892 
     68 H68        36.0103  -46.3286  -50.2785 H         1 UNK         0.0892 
     69 H69        34.2496  -46.3523  -50.4039 H         1 UNK         0.0892 
     70 H70        33.4832  -46.1472  -52.4819 H         1 UNK         0.3107 
     71 H71        35.2225  -46.3172  -54.8222 H         1 UNK         0.0773 
     72 H72        32.2430  -45.6436  -54.4999 H         1 UNK         0.0680 
     73 H73        33.0668  -45.7098  -56.0370 H         1 UNK         0.0680 
     74 H74        33.2531  -43.8721  -52.4684 H         1 UNK         0.0650 
     75 H75        33.3185  -42.2342  -53.0669 H         1 UNK         0.0650 
     76 H76        31.1161  -43.8780  -51.4069 H         1 UNK         0.1397 
     77 H77        27.5628  -43.0253  -53.6512 H         1 UNK         0.1363 
     78 H78        31.4061  -42.4427  -55.4435 H         1 UNK         0.1355 
     79 H79        29.3986  -41.4970  -56.4719 H         1 UNK         0.0707 
     80 H80        27.8233  -41.6799  -55.7342 H         1 UNK         0.0707 
     81 H81        28.0543  -41.6656  -58.4567 H         1 UNK         0.1034 
     82 H82        28.4965  -43.0476  -59.4068 H         1 UNK         0.1034 
     83 H83        25.7786  -42.6335  -58.0686 H         1 UNK         0.0482 
     84 H84        24.6229  -41.8651  -61.6779 H         1 UNK         0.3460 
     85 H85        24.5691  -43.4046  -60.8539 H         1 UNK         0.3460 
     86 H86        25.2602  -44.7310  -58.5017 H         1 UNK         0.2989 
     87 H87        24.9086  -46.5991  -60.3981 H         1 UNK         0.0559 
     88 H88        26.2963  -48.6378  -60.8808 H         1 UNK         0.0848 
     89 H89        27.7573  -47.6788  -60.6465 H         1 UNK         0.0848 
     90 H90        26.6535  -47.2972  -61.9574 H         1 UNK         0.0848 
     91 H91        26.6315  -47.8362  -58.3782 H         1 UNK         0.3144 
     92 H92        25.2808  -46.8681  -55.7017 H         1 UNK         0.0727 
     93 H93        23.6661  -48.6038  -54.8714 H         1 UNK         0.0790 
     94 H94        23.1392  -48.8911  -56.5303 H         1 UNK         0.0790 
     95 H95        22.8791  -47.3262  -55.7811 H         1 UNK         0.0790 
     96 H96        26.8238  -48.3852  -55.7797 H         1 UNK         0.3215 
     97 H97        27.1454  -51.2908  -55.6543 H         1 UNK         0.0863 
     98 H98        28.4044  -52.4039  -57.5218 H         1 UNK         0.0808 
     99 H99        27.5876  -51.3623  -58.6869 H         1 UNK         0.0808 
    100 H100       26.6668  -52.5188  -57.7379 H         1 UNK         0.0808 
    101 H101       28.9889  -50.0451  -55.5493 H         1 UNK         0.3118 
    102 H102       31.0619  -48.7854  -56.9542 H         1 UNK         0.0546 
    103 H103       29.4272  -46.2850  -57.6179 H         1 UNK         0.0828 
    104 H104       30.5348  -47.1267  -58.6882 H         1 UNK         0.0828 
    105 H105       31.1563  -46.2770  -57.2836 H         1 UNK         0.0828 
    106 H106       30.9864  -48.0525  -54.8656 H         1 UNK         0.3005 
    107 H107       30.1114  -46.1261  -53.2217 H         1 UNK         0.1257 
    108 H108       27.5740  -45.6694  -53.0767 H         1 UNK         0.0775 
    109 H109       27.3908  -47.2346  -52.3394 H         1 UNK         0.0775 
    110 H110       27.3522  -43.6437  -51.3661 H         1 UNK         0.0840 
    111 H111       28.7199  -43.3578  -50.3216 H         1 UNK         0.0840 
    112 H112       29.4135  -48.9734  -52.6882 H         1 UNK         0.2987 
    113 H113       31.4991  -49.4022  -50.2017 H         1 UNK         0.0785 
    114 H114       30.8395  -51.6120  -51.1529 H         1 UNK         0.0798 
    115 H115       30.4829  -50.8752  -52.7069 H         1 UNK         0.0798 
    116 H116       29.5081  -50.4874  -51.2828 H         1 UNK         0.0798 
    117 H117       33.0983  -49.3932  -52.6213 H         1 UNK         0.3079 
    118 H118       35.7592  -50.1643  -51.1822 H         1 UNK         0.0794 
    119 H119       35.7310  -52.5066  -50.4757 H         1 UNK         0.0786 
    120 H120       36.6315  -52.3819  -51.9762 H         1 UNK         0.0786 
    121 H121       34.9853  -53.0150  -51.9806 H         1 UNK         0.0786 
    122 H122       35.7223  -49.5482  -53.2766 H         1 UNK         0.3032 
    123 H123       35.7716  -50.4833  -55.9350 H         1 UNK         0.1094 
    124 H124       32.7203  -50.4265  -56.2317 H         1 UNK         0.0794 
    125 H125       33.8511  -49.9913  -57.5138 H         1 UNK         0.0794 
    126 H126       33.8241  -51.6273  -56.8767 H         1 UNK         0.0794 
    127 H127       35.7273  -48.2947  -55.5312 H         1 UNK         0.3016 
@<TRIPOS>BOND
     1    1    2 1    
     2    1   67 1    
     3    1   68 1    
     4    1   69 1    
     5    2    3 2    
     6    2    4 am   BACKBONE|DICT|INTERRES
     7    4    5 1    
     8    4   70 1    
     9    5    6 1    
    10    5   65 1    
    11    5   71 1    
    12    6    7 1    
    13    6   72 1    
    14    6   73 1    
    15    7    8 1    
    16    8    9 1    
    17    8   74 1    
    18    8   75 1    
    19    9   10 ar   
    20    9   14 ar   
    21   10   11 ar   
    22   10   76 1    
    23   11   12 ar   
    24   11   48 1    
    25   12   13 ar   
    26   12   77 1    
    27   13   14 ar   
    28   13   15 1    
    29   14   78 1    
    30   15   16 1    
    31   15   79 1    
    32   15   80 1    
    33   16   17 1    
    34   17   18 1    
    35   17   81 1    
    36   17   82 1    
    37   18   19 1    
    38   18   22 1    
    39   18   83 1    
    40   19   20 am   BACKBONE|DICT|INTERRES
    41   19   21 2    
    42   20   84 1    
    43   20   85 1    
    44   22   23 am   BACKBONE|DICT|INTERRES
    45   22   86 1    
    46   23   24 2    
    47   23   25 1    
    48   25   26 1    
    49   25   27 1    
    50   25   87 1    
    51   26   88 1    
    52   26   89 1    
    53   26   90 1    
    54   27   28 am   BACKBONE|DICT|INTERRES
    55   27   91 1    
    56   28   29 2    
    57   28   30 1    
    58   30   31 1    
    59   30   32 1    
    60   30   92 1    
    61   31   93 1    
    62   31   94 1    
    63   31   95 1    
    64   32   33 am   BACKBONE|DICT|INTERRES
    65   32   96 1    
    66   33   34 2    
    67   33   35 1    
    68   35   36 1    
    69   35   37 1    
    70   35   97 1    
    71   36   98 1    
    72   36   99 1    
    73   36  100 1    
    74   37   38 am   BACKBONE|DICT|INTERRES
    75   37  101 1    
    76   38   39 2    
    77   38   40 1    
    78   40   41 1    
    79   40   42 1    
    80   40  102 1    
    81   41  103 1    
    82   41  104 1    
    83   41  105 1    
    84   42   43 am   BACKBONE|DICT|INTERRES
    85   42  106 1    
    86   43   44 2    
    87   43   45 1    
    88   45   46 1    
    89   45   49 1    
    90   45  107 1    
    91   46   47 1    
    92   46  108 1    
    93   46  109 1    
    94   47   48 1    
    95   48  110 1    
    96   48  111 1    
    97   49   50 am   BACKBONE|DICT|INTERRES
    98   49  112 1    
    99   50   51 2    
   100   50   52 1    
   101   52   53 1    
   102   52   54 1    
   103   52  113 1    
   104   53  114 1    
   105   53  115 1    
   106   53  116 1    
   107   54   55 am   BACKBONE|DICT|INTERRES
   108   54  117 1    
   109   55   56 2    
   110   55   57 1    
   111   57   58 1    
   112   57   59 1    
   113   57  118 1    
   114   58  119 1    
   115   58  120 1    
   116   58  121 1    
   117   59   60 am   BACKBONE|DICT|INTERRES
   118   59  122 1    
   119   60   61 2    
   120   60   62 1    
   121   62   63 1    
   122   62   64 1    
   123   62  123 1    
   124   63  124 1    
   125   63  125 1    
   126   63  126 1    
   127   64   65 am   BACKBONE|DICT|INTERRES
   128   64  127 1    
   129   65   66 2    
@<TRIPOS>SUBSTRUCTURE
     1 UNK         1 GROUP             0       ****    0 ROOT    
