@<TRIPOS>MOLECULE
3R134
127   129    1
SMALL
USER_CHARGES


@<TRIPOS>ATOM
      1 CA         36.9847  -50.6469  -55.0481 C.3       0 UNK        -0.1968 
      2 C          35.8327  -49.7660  -54.5901 C.2       0 UNK         0.4852 
      3 O          34.9487  -50.2380  -53.8744 O.2       0 UNK        -0.5359 
      4 N          35.8441  -48.4797  -54.9698 N.am      1 UNK        -0.4300 
      5 CA         34.7867  -47.5009  -54.6700 C.3       1 UNK         0.0863 
      6 C6         34.9270  -46.2288  -55.5470 C.3       11 UNK        -0.0953 
      7 S7         33.3036  -45.5397  -56.0083 S.3       11 UNK        -0.2369 
      8 C8         33.3062  -43.9802  -55.0755 C.3       11 UNK         0.0226 
      9 C9         31.9092  -43.3861  -55.0108 C.ar      11 UNK        -0.0699 
     10 C10        31.1648  -43.4669  -53.8307 C.ar      11 UNK        -0.0804 
     11 C11        29.8667  -42.9503  -53.7737 C.ar      11 UNK        -0.0871 
     12 C12        29.3332  -42.3121  -54.8989 C.ar      11 UNK        -0.1008 
     13 C13        30.0710  -42.2176  -56.0839 C.ar      11 UNK        -0.0735 
     14 C14        31.3578  -42.7615  -56.1330 C.ar      11 UNK        -0.0945 
     15 C15        29.5007  -41.5040  -57.3040 C.3       11 UNK         0.0169 
     16 S16        28.4002  -42.5714  -58.2923 S.3       11 UNK        -0.2669 
     17 C17        26.8337  -42.4455  -57.3625 C.3       11 UNK        -0.0850 
     18 CA         26.4636  -43.7869  -56.6633 C.3       10 UNK         0.0855 
     19 C          25.4873  -43.6114  -55.4588 C.2       10 UNK         0.5543 
     20 N          24.5984  -44.5571  -55.1769 N.am      10 UNK        -0.7343 
     21 O          25.5615  -42.6194  -54.7382 O.2       10 UNK        -0.5027 
     22 N          26.0786  -44.8540  -57.6024 N.am      10 UNK        -0.4495 
     23 C          25.0147  -44.8322  -58.4179 C.2       10 UNK         0.4903 
     24 O          24.2654  -43.8640  -58.5503 O.2       10 UNK        -0.4860 
     25 CA         24.7066  -46.1091  -59.2191 C.3       9 UNK         0.0227 
     26 CB         25.3511  -46.0255  -60.6124 C.3       9 UNK        -0.1964 
     27 N          25.1090  -47.3686  -58.5871 N.am      9 UNK        -0.4231 
     28 C          24.7855  -47.8138  -57.3657 C.2       9 UNK         0.5014 
     29 O          24.1293  -47.1592  -56.5538 O.2       9 UNK        -0.5270 
     30 CA         25.2758  -49.2225  -56.9645 C.3       8 UNK         0.0284 
     31 CB         24.1275  -50.2469  -57.0468 C.3       8 UNK        -0.1977 
     32 N          26.4700  -49.7066  -57.6789 N.am      8 UNK        -0.4342 
     33 C          26.6364  -49.9822  -58.9811 C.2       8 UNK         0.5039 
     34 O          25.7400  -49.8805  -59.8193 O.2       8 UNK        -0.5547 
     35 CA         28.0742  -50.3115  -59.4296 C.3       7 UNK         0.0281 
     36 CB         28.1685  -50.6437  -60.9308 C.3       7 UNK        -0.1963 
     37 N          28.9633  -49.1838  -59.1326 N.am      7 UNK        -0.4444 
     38 C          29.4616  -48.9135  -57.9200 C.2       7 UNK         0.5104 
     39 O          29.3292  -49.6813  -56.9624 O.2       7 UNK        -0.5100 
     40 CA         30.1843  -47.5634  -57.7323 C.3       6 UNK         0.0396 
     41 CB         29.6812  -46.4485  -58.6786 C.3       6 UNK        -0.1801 
     42 N          30.1230  -47.1182  -56.3377 N.am      6 UNK        -0.4747 
     43 C          29.0305  -46.8227  -55.6181 C.2       6 UNK         0.5012 
     44 O          27.8817  -46.8184  -56.0684 O.2       6 UNK        -0.5003 
     45 CA         29.2826  -46.5158  -54.1286 C.3       5 UNK         0.0782 
     46 C46        28.1936  -45.6054  -53.5074 C.3       11 UNK        -0.0868 
     47 S47        28.7946  -44.8200  -51.9751 S.3       11 UNK        -0.2515 
     48 C48        29.0325  -43.0850  -52.5027 C.3       11 UNK         0.0199 
     49 N          29.4366  -47.7540  -53.3601 N.am      5 UNK        -0.4607 
     50 C          30.5104  -48.5500  -53.3860 C.2       4 UNK         0.5031 
     51 O          31.5006  -48.3526  -54.0907 O.2       4 UNK        -0.5119 
     52 CA         30.4676  -49.7849  -52.4847 C.3       4 UNK         0.0263 
     53 CB         29.8916  -50.9950  -53.2425 C.3       4 UNK        -0.1967 
     54 N          31.8255  -50.0725  -52.0307 N.am      4 UNK        -0.4237 
     55 C          32.1413  -50.7280  -50.9077 C.2       3 UNK         0.4908 
     56 O          31.3064  -51.1978  -50.1333 O.2       3 UNK        -0.5102 
     57 CA         33.6337  -50.8932  -50.5820 C.3       3 UNK         0.0241 
     58 CB         34.1809  -52.1864  -51.2088 C.3       3 UNK        -0.1971 
     59 N          34.4377  -49.7507  -51.0261 N.am      3 UNK        -0.4139 
     60 C          34.6267  -48.6380  -50.2982 C.2       2 UNK         0.5016 
     61 O          34.1282  -48.4609  -49.1857 O.2       2 UNK        -0.5319 
     62 CA         35.5384  -47.5397  -50.8816 C.3       2 UNK         0.0286 
     63 CB         36.9568  -47.6556  -50.3000 C.3       2 UNK        -0.1963 
     64 N          35.6179  -47.5766  -52.3423 N.am      2 UNK        -0.4790 
     65 C          34.6388  -47.1692  -53.1622 C.2       1 UNK         0.5024 
     66 O          33.6396  -46.5755  -52.7570 O.2       1 UNK        -0.4888 
     67 H67        37.5101  -51.0557  -54.1854 H         1 UNK         0.0892 
     68 H68        36.6053  -51.4786  -55.6411 H         1 UNK         0.0892 
     69 H69        37.7036  -50.0971  -55.6553 H         1 UNK         0.0892 
     70 H70        36.6068  -48.1406  -55.5392 H         1 UNK         0.3107 
     71 H71        33.8605  -48.0008  -54.9569 H         1 UNK         0.0773 
     72 H72        35.4253  -46.4691  -56.4875 H         1 UNK         0.0680 
     73 H73        35.5528  -45.4724  -55.0692 H         1 UNK         0.0680 
     74 H74        33.9897  -43.2749  -55.5502 H         1 UNK         0.0650 
     75 H75        33.6889  -44.1557  -54.0690 H         1 UNK         0.0650 
     76 H76        31.5838  -43.9591  -52.9629 H         1 UNK         0.1397 
     77 H77        28.3384  -41.8925  -54.8517 H         1 UNK         0.1363 
     78 H78        31.9345  -42.7003  -57.0460 H         1 UNK         0.1355 
     79 H79        30.3153  -41.1685  -57.9477 H         1 UNK         0.0707 
     80 H80        28.9754  -40.5976  -56.9997 H         1 UNK         0.0707 
     81 H81        26.9219  -41.6329  -56.6417 H         1 UNK         0.1034 
     82 H82        26.0471  -42.1230  -58.0443 H         1 UNK         0.1034 
     83 H83        27.3808  -44.1505  -56.2064 H         1 UNK         0.0482 
     84 H84        24.5280  -45.3971  -55.7430 H         1 UNK         0.3460 
     85 H85        23.9848  -44.4343  -54.3879 H         1 UNK         0.3460 
     86 H86        26.6024  -45.7149  -57.5037 H         1 UNK         0.2989 
     87 H87        23.6234  -46.1547  -59.3470 H         1 UNK         0.0559 
     88 H88        26.4402  -46.0141  -60.5518 H         1 UNK         0.0848 
     89 H89        25.0445  -45.1164  -61.1318 H         1 UNK         0.0848 
     90 H90        25.0579  -46.8684  -61.2388 H         1 UNK         0.0848 
     91 H91        25.5585  -48.0497  -59.1910 H         1 UNK         0.3144 
     92 H92        25.5767  -49.1467  -55.9183 H         1 UNK         0.0727 
     93 H93        23.2826  -49.9341  -56.4318 H         1 UNK         0.0790 
     94 H94        24.4435  -51.2266  -56.6886 H         1 UNK         0.0790 
     95 H95        23.7586  -50.3645  -58.0662 H         1 UNK         0.0790 
     96 H96        27.3135  -49.7501  -57.1127 H         1 UNK         0.3215 
     97 H97        28.4003  -51.1924  -58.8717 H         1 UNK         0.0863 
     98 H98        27.8580  -49.8037  -61.5536 H         1 UNK         0.0808 
     99 H99        27.5284  -51.4902  -61.1831 H         1 UNK         0.0808 
    100 H100       29.1861  -50.9134  -61.2140 H         1 UNK         0.0808 
    101 H101       29.0941  -48.5063  -59.8697 H         1 UNK         0.3118 
    102 H102       31.2388  -47.7402  -57.9473 H         1 UNK         0.0546 
    103 H103       28.6000  -46.3183  -58.6221 H         1 UNK         0.0828 
    104 H104       29.9358  -46.6601  -59.7172 H         1 UNK         0.0828 
    105 H105       30.1386  -45.4896  -58.4323 H         1 UNK         0.0828 
    106 H106       30.9917  -47.2082  -55.8211 H         1 UNK         0.3005 
    107 H107       30.2329  -45.9802  -54.0877 H         1 UNK         0.1257 
    108 H108       27.2834  -46.1687  -53.2945 H         1 UNK         0.0775 
    109 H109       27.8977  -44.8174  -54.1948 H         1 UNK         0.0775 
    110 H110       28.0502  -42.6283  -52.6364 H         1 UNK         0.0840 
    111 H111       29.5189  -42.5335  -51.6971 H         1 UNK         0.0840 
    112 H112       28.6562  -48.0042  -52.7711 H         1 UNK         0.2987 
    113 H113       29.8398  -49.5627  -51.6188 H         1 UNK         0.0785 
    114 H114       28.8827  -50.7880  -53.6019 H         1 UNK         0.0798 
    115 H115       29.8344  -51.8763  -52.6037 H         1 UNK         0.0798 
    116 H116       30.5001  -51.2486  -54.1118 H         1 UNK         0.0798 
    117 H117       32.5568  -49.6894  -52.6184 H         1 UNK         0.3079 
    118 H118       33.7254  -50.9896  -49.4977 H         1 UNK         0.0794 
    119 H119       33.6412  -53.0574  -50.8347 H         1 UNK         0.0786 
    120 H120       35.2344  -52.3299  -50.9683 H         1 UNK         0.0786 
    121 H121       34.0813  -52.1863  -52.2947 H         1 UNK         0.0786 
    122 H122       34.8333  -49.8135  -51.9602 H         1 UNK         0.3032 
    123 H123       35.1220  -46.5759  -50.5787 H         1 UNK         0.1094 
    124 H124       36.9366  -47.6028  -49.2104 H         1 UNK         0.0794 
    125 H125       37.4301  -48.6001  -50.5713 H         1 UNK         0.0794 
    126 H126       37.5968  -46.8451  -50.6495 H         1 UNK         0.0794 
    127 H127       36.4161  -48.0432  -52.7482 H         1 UNK         0.3016 
@<TRIPOS>BOND
     1    1    2 1    
     2    1   67 1    
     3    1   68 1    
     4    1   69 1    
     5    2    3 2    
     6    2    4 am   BACKBONE|DICT|INTERRES
     7    4    5 1    
     8    4   70 1    
     9    5    6 1    
    10    5   65 1    
    11    5   71 1    
    12    6    7 1    
    13    6   72 1    
    14    6   73 1    
    15    7    8 1    
    16    8    9 1    
    17    8   74 1    
    18    8   75 1    
    19    9   10 ar   
    20    9   14 ar   
    21   10   11 ar   
    22   10   76 1    
    23   11   12 ar   
    24   11   48 1    
    25   12   13 ar   
    26   12   77 1    
    27   13   14 ar   
    28   13   15 1    
    29   14   78 1    
    30   15   16 1    
    31   15   79 1    
    32   15   80 1    
    33   16   17 1    
    34   17   18 1    
    35   17   81 1    
    36   17   82 1    
    37   18   19 1    
    38   18   22 1    
    39   18   83 1    
    40   19   20 am   BACKBONE|DICT|INTERRES
    41   19   21 2    
    42   20   84 1    
    43   20   85 1    
    44   22   23 am   BACKBONE|DICT|INTERRES
    45   22   86 1    
    46   23   24 2    
    47   23   25 1    
    48   25   26 1    
    49   25   27 1    
    50   25   87 1    
    51   26   88 1    
    52   26   89 1    
    53   26   90 1    
    54   27   28 am   BACKBONE|DICT|INTERRES
    55   27   91 1    
    56   28   29 2    
    57   28   30 1    
    58   30   31 1    
    59   30   32 1    
    60   30   92 1    
    61   31   93 1    
    62   31   94 1    
    63   31   95 1    
    64   32   33 am   BACKBONE|DICT|INTERRES
    65   32   96 1    
    66   33   34 2    
    67   33   35 1    
    68   35   36 1    
    69   35   37 1    
    70   35   97 1    
    71   36   98 1    
    72   36   99 1    
    73   36  100 1    
    74   37   38 am   BACKBONE|DICT|INTERRES
    75   37  101 1    
    76   38   39 2    
    77   38   40 1    
    78   40   41 1    
    79   40   42 1    
    80   40  102 1    
    81   41  103 1    
    82   41  104 1    
    83   41  105 1    
    84   42   43 am   BACKBONE|DICT|INTERRES
    85   42  106 1    
    86   43   44 2    
    87   43   45 1    
    88   45   46 1    
    89   45   49 1    
    90   45  107 1    
    91   46   47 1    
    92   46  108 1    
    93   46  109 1    
    94   47   48 1    
    95   48  110 1    
    96   48  111 1    
    97   49   50 am   BACKBONE|DICT|INTERRES
    98   49  112 1    
    99   50   51 2    
   100   50   52 1    
   101   52   53 1    
   102   52   54 1    
   103   52  113 1    
   104   53  114 1    
   105   53  115 1    
   106   53  116 1    
   107   54   55 am   BACKBONE|DICT|INTERRES
   108   54  117 1    
   109   55   56 2    
   110   55   57 1    
   111   57   58 1    
   112   57   59 1    
   113   57  118 1    
   114   58  119 1    
   115   58  120 1    
   116   58  121 1    
   117   59   60 am   BACKBONE|DICT|INTERRES
   118   59  122 1    
   119   60   61 2    
   120   60   62 1    
   121   62   63 1    
   122   62   64 1    
   123   62  123 1    
   124   63  124 1    
   125   63  125 1    
   126   63  126 1    
   127   64   65 am   BACKBONE|DICT|INTERRES
   128   64  127 1    
   129   65   66 2    
@<TRIPOS>SUBSTRUCTURE
     1 UNK         1 GROUP             0       ****    0 ROOT    
