@<TRIPOS>MOLECULE
3R134
127   129    1
SMALL
USER_CHARGES


@<TRIPOS>ATOM
      1 CA         37.2398  -48.6332  -55.3816 C.3       0 UNK        -0.1968 
      2 C          35.9793  -47.8457  -55.0600 C.2       0 UNK         0.4852 
      3 O          34.8830  -48.2846  -55.4045 O.2       0 UNK        -0.5359 
      4 N          36.1212  -46.6936  -54.3904 N.am      1 UNK        -0.4300 
      5 CA         35.0274  -45.7951  -53.9982 C.3       1 UNK         0.0863 
      6 C6         35.5995  -44.4671  -53.4347 C.3       11 UNK        -0.0953 
      7 S7         34.4000  -43.2621  -52.7718 S.3       11 UNK        -0.2369 
      8 C8         33.4780  -42.7328  -54.2603 C.3       11 UNK         0.0226 
      9 C9         31.9846  -43.0662  -54.2202 C.ar      11 UNK        -0.0699 
     10 C10        31.2701  -43.0761  -53.0158 C.ar      11 UNK        -0.0804 
     11 C11        29.9023  -43.3583  -52.9915 C.ar      11 UNK        -0.0871 
     12 C12        29.2328  -43.6022  -54.1933 C.ar      11 UNK        -0.1008 
     13 C13        29.9260  -43.5936  -55.4078 C.ar      11 UNK        -0.0735 
     14 C14        31.3004  -43.3267  -55.4130 C.ar      11 UNK        -0.0945 
     15 C15        29.1916  -43.8816  -56.7105 C.3       11 UNK         0.0169 
     16 S16        27.9056  -42.6321  -57.0413 S.3       11 UNK        -0.2669 
     17 C17        27.9586  -42.4747  -58.8594 C.3       11 UNK        -0.0850 
     18 CA         26.8339  -43.2721  -59.5848 C.3       10 UNK         0.0855 
     19 C          26.7113  -42.8914  -61.0934 C.2       10 UNK         0.5543 
     20 N          26.3409  -43.8086  -61.9792 N.am      10 UNK        -0.7343 
     21 O          26.9222  -41.7401  -61.4677 O.2       10 UNK        -0.5027 
     22 N          26.8815  -44.7244  -59.3282 N.am      10 UNK        -0.4495 
     23 C          27.8861  -45.5549  -59.6347 C.2       10 UNK         0.4903 
     24 O          28.9507  -45.1861  -60.1326 O.2       10 UNK        -0.4860 
     25 CA         27.6568  -47.0509  -59.3428 C.3       9 UNK         0.0227 
     26 CB         28.9362  -47.8901  -59.5191 C.3       9 UNK        -0.1964 
     27 N          27.1177  -47.2979  -58.0040 N.am      9 UNK        -0.4231 
     28 C          25.8348  -47.1970  -57.6334 C.2       9 UNK         0.5014 
     29 O          24.9501  -46.7528  -58.3686 O.2       9 UNK        -0.5270 
     30 CA         25.5001  -47.6782  -56.2062 C.3       8 UNK         0.0284 
     31 CB         23.9855  -47.8308  -55.9540 C.3       8 UNK        -0.1977 
     32 N          26.2222  -48.9081  -55.8526 N.am      8 UNK        -0.4342 
     33 C          26.1700  -50.0999  -56.4683 C.2       8 UNK         0.5039 
     34 O          25.3808  -50.3739  -57.3735 O.2       8 UNK        -0.5547 
     35 CA         27.1967  -51.1657  -56.0378 C.3       7 UNK         0.0281 
     36 CB         28.2832  -51.3139  -57.1162 C.3       7 UNK        -0.1963 
     37 N          27.8462  -50.8783  -54.7565 N.am      7 UNK        -0.4444 
     38 C          27.2755  -51.0393  -53.5556 C.2       7 UNK         0.5104 
     39 O          26.1499  -51.5096  -53.3883 O.2       7 UNK        -0.5100 
     40 CA         28.0854  -50.5588  -52.3368 C.3       6 UNK         0.0396 
     41 CB         29.0816  -51.6375  -51.8846 C.3       6 UNK        -0.1801 
     42 N          28.7959  -49.2967  -52.5738 N.am      6 UNK        -0.4747 
     43 C          28.1984  -48.1318  -52.8707 C.2       6 UNK         0.5012 
     44 O          26.9786  -47.9956  -52.9661 O.2       6 UNK        -0.5003 
     45 CA         29.1122  -46.9286  -53.1660 C.3       5 UNK         0.0782 
     46 C46        29.6008  -46.2403  -51.8647 C.3       11 UNK        -0.0868 
     47 S47        28.3752  -45.0096  -51.2951 S.3       11 UNK        -0.2515 
     48 C48        29.1656  -43.4015  -51.6565 C.3       11 UNK         0.0199 
     49 N          30.2029  -47.2788  -54.0777 N.am      5 UNK        -0.4607 
     50 C          30.0221  -47.6380  -55.3565 C.2       4 UNK         0.5031 
     51 O          28.9259  -47.6538  -55.9136 O.2       4 UNK        -0.5119 
     52 CA         31.2554  -48.1060  -56.1421 C.3       4 UNK         0.0263 
     53 CB         32.0263  -46.9029  -56.7069 C.3       4 UNK        -0.1967 
     54 N          32.1439  -48.9522  -55.3432 N.am      4 UNK        -0.4237 
     55 C          31.7889  -50.1249  -54.7965 C.2       3 UNK         0.4908 
     56 O          30.6928  -50.6572  -54.9669 O.2       3 UNK        -0.5102 
     57 CA         32.8038  -50.7913  -53.8562 C.3       3 UNK         0.0241 
     58 CB         33.8686  -51.5673  -54.6478 C.3       3 UNK        -0.1971 
     59 N          33.4436  -49.8212  -52.9659 N.am      3 UNK        -0.4139 
     60 C          32.8119  -49.1659  -51.9807 C.2       2 UNK         0.5016 
     61 O          31.6288  -49.3408  -51.6861 O.2       2 UNK        -0.5319 
     62 CA         33.6312  -48.1023  -51.2280 C.3       2 UNK         0.0286 
     63 CB         34.4922  -48.7513  -50.1330 C.3       2 UNK        -0.1963 
     64 N          34.4821  -47.3030  -52.1175 N.am      2 UNK        -0.4790 
     65 C          34.0033  -46.4843  -53.0669 C.2       1 UNK         0.5024 
     66 O          32.8009  -46.3155  -53.2620 O.2       1 UNK        -0.4888 
     67 H67        37.3428  -48.7474  -56.4603 H         1 UNK         0.0892 
     68 H68        38.1366  -48.1420  -55.0046 H         1 UNK         0.0892 
     69 H69        37.1840  -49.6269  -54.9380 H         1 UNK         0.0892 
     70 H70        37.0499  -46.3885  -54.1353 H         1 UNK         0.3107 
     71 H71        34.4864  -45.5515  -54.9143 H         1 UNK         0.0773 
     72 H72        36.1877  -43.9646  -54.2043 H         1 UNK         0.0680 
     73 H73        36.2985  -44.6852  -52.6253 H         1 UNK         0.0680 
     74 H74        33.5837  -41.6522  -54.3613 H         1 UNK         0.0650 
     75 H75        33.9373  -43.1685  -55.1485 H         1 UNK         0.0650 
     76 H76        31.7794  -42.8682  -52.0858 H         1 UNK         0.1397 
     77 H77        28.1714  -43.8095  -54.1833 H         1 UNK         0.1363 
     78 H78        31.8391  -43.3141  -56.3505 H         1 UNK         0.1355 
     79 H79        28.7258  -44.8665  -56.6537 H         1 UNK         0.0707 
     80 H80        29.8984  -43.9250  -57.5400 H         1 UNK         0.0707 
     81 H81        28.9435  -42.7448  -59.2412 H         1 UNK         0.1034 
     82 H82        27.8548  -41.4089  -59.0709 H         1 UNK         0.1034 
     83 H83        25.8876  -42.9445  -59.1531 H         1 UNK         0.0482 
     84 H84        26.2529  -43.5518  -62.9499 H         1 UNK         0.3460 
     85 H85        26.1460  -44.7521  -61.6854 H         1 UNK         0.3460 
     86 H86        26.0362  -45.1389  -58.9493 H         1 UNK         0.2989 
     87 H87        26.9294  -47.4064  -60.0753 H         1 UNK         0.0559 
     88 H88        29.7233  -47.5680  -58.8375 H         1 UNK         0.0848 
     89 H89        29.3272  -47.8025  -60.5337 H         1 UNK         0.0848 
     90 H90        28.7462  -48.9482  -59.3394 H         1 UNK         0.0848 
     91 H91        27.7913  -47.5697  -57.2876 H         1 UNK         0.3144 
     92 H92        25.8715  -46.9057  -55.5311 H         1 UNK         0.0727 
     93 H93        23.5315  -48.5525  -56.6337 H         1 UNK         0.0790 
     94 H94        23.4688  -46.8810  -56.0965 H         1 UNK         0.0790 
     95 H95        23.7862  -48.1582  -54.9336 H         1 UNK         0.0790 
     96 H96        26.9185  -48.7960  -55.1260 H         1 UNK         0.3215 
     97 H97        26.6654  -52.1161  -55.9520 H         1 UNK         0.0863 
     98 H98        28.8601  -50.3954  -57.2315 H         1 UNK         0.0808 
     99 H99        27.8456  -51.5503  -58.0870 H         1 UNK         0.0808 
    100 H100       28.9795  -52.1159  -56.8701 H         1 UNK         0.0808 
    101 H101       28.8144  -50.5640  -54.7944 H         1 UNK         0.3118 
    102 H102       27.3811  -50.3872  -51.5202 H         1 UNK         0.0546 
    103 H103       29.6131  -51.3339  -50.9825 H         1 UNK         0.0828 
    104 H104       29.8242  -51.8500  -52.6537 H         1 UNK         0.0828 
    105 H105       28.5681  -52.5732  -51.6598 H         1 UNK         0.0828 
    106 H106       29.8088  -49.3175  -52.4826 H         1 UNK         0.3005 
    107 H107       28.4973  -46.2170  -53.7201 H         1 UNK         0.1257 
    108 H108       30.5570  -45.7422  -52.0221 H         1 UNK         0.0775 
    109 H109       29.7876  -46.9626  -51.0674 H         1 UNK         0.0775 
    110 H110       28.4011  -42.6235  -51.6471 H         1 UNK         0.0840 
    111 H111       29.8451  -43.1670  -50.8356 H         1 UNK         0.0840 
    112 H112       31.1485  -47.2068  -53.7132 H         1 UNK         0.2987 
    113 H113       30.9039  -48.7102  -56.9805 H         1 UNK         0.0785 
    114 H114       32.8871  -47.2220  -57.2947 H         1 UNK         0.0798 
    115 H115       31.3895  -46.3033  -57.3587 H         1 UNK         0.0798 
    116 H116       32.3852  -46.2462  -55.9150 H         1 UNK         0.0798 
    117 H117       33.0984  -48.6203  -55.2101 H         1 UNK         0.3079 
    118 H118       32.2594  -51.5058  -53.2352 H         1 UNK         0.0794 
    119 H119       34.5544  -52.0910  -53.9817 H         1 UNK         0.0786 
    120 H120       34.4585  -50.9136  -55.2906 H         1 UNK         0.0786 
    121 H121       33.4038  -52.3181  -55.2883 H         1 UNK         0.0786 
    122 H122       34.3997  -49.5726  -53.1726 H         1 UNK         0.3032 
    123 H123       32.9197  -47.4261  -50.7479 H         1 UNK         0.1094 
    124 H124       33.8758  -49.3395  -49.4514 H         1 UNK         0.0794 
    125 H125       35.2457  -49.4204  -50.5504 H         1 UNK         0.0794 
    126 H126       35.0053  -47.9986  -49.5341 H         1 UNK         0.0794 
    127 H127       35.4823  -47.4008  -52.0177 H         1 UNK         0.3016 
@<TRIPOS>BOND
     1    1    2 1    
     2    1   67 1    
     3    1   68 1    
     4    1   69 1    
     5    2    3 2    
     6    2    4 am   BACKBONE|DICT|INTERRES
     7    4    5 1    
     8    4   70 1    
     9    5    6 1    
    10    5   65 1    
    11    5   71 1    
    12    6    7 1    
    13    6   72 1    
    14    6   73 1    
    15    7    8 1    
    16    8    9 1    
    17    8   74 1    
    18    8   75 1    
    19    9   10 ar   
    20    9   14 ar   
    21   10   11 ar   
    22   10   76 1    
    23   11   12 ar   
    24   11   48 1    
    25   12   13 ar   
    26   12   77 1    
    27   13   14 ar   
    28   13   15 1    
    29   14   78 1    
    30   15   16 1    
    31   15   79 1    
    32   15   80 1    
    33   16   17 1    
    34   17   18 1    
    35   17   81 1    
    36   17   82 1    
    37   18   19 1    
    38   18   22 1    
    39   18   83 1    
    40   19   20 am   BACKBONE|DICT|INTERRES
    41   19   21 2    
    42   20   84 1    
    43   20   85 1    
    44   22   23 am   BACKBONE|DICT|INTERRES
    45   22   86 1    
    46   23   24 2    
    47   23   25 1    
    48   25   26 1    
    49   25   27 1    
    50   25   87 1    
    51   26   88 1    
    52   26   89 1    
    53   26   90 1    
    54   27   28 am   BACKBONE|DICT|INTERRES
    55   27   91 1    
    56   28   29 2    
    57   28   30 1    
    58   30   31 1    
    59   30   32 1    
    60   30   92 1    
    61   31   93 1    
    62   31   94 1    
    63   31   95 1    
    64   32   33 am   BACKBONE|DICT|INTERRES
    65   32   96 1    
    66   33   34 2    
    67   33   35 1    
    68   35   36 1    
    69   35   37 1    
    70   35   97 1    
    71   36   98 1    
    72   36   99 1    
    73   36  100 1    
    74   37   38 am   BACKBONE|DICT|INTERRES
    75   37  101 1    
    76   38   39 2    
    77   38   40 1    
    78   40   41 1    
    79   40   42 1    
    80   40  102 1    
    81   41  103 1    
    82   41  104 1    
    83   41  105 1    
    84   42   43 am   BACKBONE|DICT|INTERRES
    85   42  106 1    
    86   43   44 2    
    87   43   45 1    
    88   45   46 1    
    89   45   49 1    
    90   45  107 1    
    91   46   47 1    
    92   46  108 1    
    93   46  109 1    
    94   47   48 1    
    95   48  110 1    
    96   48  111 1    
    97   49   50 am   BACKBONE|DICT|INTERRES
    98   49  112 1    
    99   50   51 2    
   100   50   52 1    
   101   52   53 1    
   102   52   54 1    
   103   52  113 1    
   104   53  114 1    
   105   53  115 1    
   106   53  116 1    
   107   54   55 am   BACKBONE|DICT|INTERRES
   108   54  117 1    
   109   55   56 2    
   110   55   57 1    
   111   57   58 1    
   112   57   59 1    
   113   57  118 1    
   114   58  119 1    
   115   58  120 1    
   116   58  121 1    
   117   59   60 am   BACKBONE|DICT|INTERRES
   118   59  122 1    
   119   60   61 2    
   120   60   62 1    
   121   62   63 1    
   122   62   64 1    
   123   62  123 1    
   124   63  124 1    
   125   63  125 1    
   126   63  126 1    
   127   64   65 am   BACKBONE|DICT|INTERRES
   128   64  127 1    
   129   65   66 2    
@<TRIPOS>SUBSTRUCTURE
     1 UNK         1 GROUP             0       ****    0 ROOT    
