@<TRIPOS>MOLECULE
3R134
127   129    1
SMALL
USER_CHARGES


@<TRIPOS>ATOM
      1 CA         37.0485  -44.5730  -47.4992 C.3       0 UNK        -0.1968 
      2 C          36.5190  -44.9322  -48.8803 C.2       0 UNK         0.4852 
      3 O          37.3027  -45.0203  -49.8271 O.2       0 UNK        -0.5359 
      4 N          35.1996  -45.1301  -48.9958 N.am      1 UNK        -0.4300 
      5 CA         34.5078  -45.5414  -50.2181 C.3       1 UNK         0.0863 
      6 C6         33.2487  -44.6649  -50.4665 C.3       11 UNK        -0.0953 
      7 S7         32.4603  -44.9748  -52.0842 S.3       11 UNK        -0.2369 
      8 C8         32.8469  -43.4624  -53.0135 C.3       11 UNK         0.0226 
      9 C9         32.1681  -43.4915  -54.3749 C.ar      11 UNK        -0.0699 
     10 C10        32.8444  -43.9825  -55.4941 C.ar      11 UNK        -0.0804 
     11 C11        32.2104  -44.0338  -56.7392 C.ar      11 UNK        -0.0871 
     12 C12        30.8880  -43.5972  -56.8594 C.ar      11 UNK        -0.1008 
     13 C13        30.1932  -43.1034  -55.7452 C.ar      11 UNK        -0.0735 
     14 C14        30.8499  -43.0469  -54.5110 C.ar      11 UNK        -0.0945 
     15 C15        28.7386  -42.6303  -55.8021 C.3       11 UNK         0.0169 
     16 S16        27.8575  -42.9387  -57.3731 S.3       11 UNK        -0.2669 
     17 C17        26.1327  -43.0188  -56.7793 C.3       11 UNK        -0.0850 
     18 CA         25.7445  -44.4679  -56.3738 C.3       10 UNK         0.0855 
     19 C          24.3902  -44.5711  -55.6205 C.2       10 UNK         0.5543 
     20 N          24.1320  -45.7071  -54.9878 N.am      10 UNK        -0.7343 
     21 O          23.5867  -43.6413  -55.5979 O.2       10 UNK        -0.5027 
     22 N          25.8562  -45.4240  -57.4894 N.am      10 UNK        -0.4495 
     23 C          25.0565  -45.4745  -58.5632 C.2       10 UNK         0.4903 
     24 O          24.0838  -44.7401  -58.7387 O.2       10 UNK        -0.4860 
     25 CA         25.4040  -46.5011  -59.6479 C.3       9 UNK         0.0227 
     26 CB         26.4271  -45.9037  -60.6295 C.3       9 UNK        -0.1964 
     27 N          25.9391  -47.7484  -59.0943 N.am      9 UNK        -0.4231 
     28 C          25.2804  -48.9151  -59.0919 C.2       9 UNK         0.5014 
     29 O          24.1082  -49.0450  -59.4491 O.2       9 UNK        -0.5270 
     30 CA         26.0713  -50.1650  -58.6765 C.3       8 UNK         0.0284 
     31 CB         27.0795  -50.5529  -59.7718 C.3       8 UNK        -0.1977 
     32 N          26.7639  -50.0276  -57.3953 N.am      8 UNK        -0.4342 
     33 C          26.1625  -50.0969  -56.1999 C.2       8 UNK         0.5039 
     34 O          24.9458  -50.2158  -56.0491 O.2       8 UNK        -0.5547 
     35 CA         27.0723  -50.0472  -54.9591 C.3       7 UNK         0.0281 
     36 CB         27.7840  -51.3926  -54.7402 C.3       7 UNK        -0.1963 
     37 N          28.0620  -48.9733  -55.0307 N.am      7 UNK        -0.4444 
     38 C          27.7593  -47.6707  -54.9637 C.2       7 UNK         0.5104 
     39 O          26.6230  -47.2397  -54.7682 O.2       7 UNK        -0.5100 
     40 CA         28.9168  -46.6839  -55.1845 C.3       6 UNK         0.0396 
     41 CB         29.6844  -46.4446  -53.8793 C.3       6 UNK        -0.1801 
     42 N          29.8359  -47.1321  -56.2319 N.am      6 UNK        -0.4747 
     43 C          29.5099  -47.2073  -57.5297 C.2       6 UNK         0.5012 
     44 O          28.4055  -46.8881  -57.9720 O.2       6 UNK        -0.5003 
     45 CA         30.5571  -47.8052  -58.4891 C.3       5 UNK         0.0782 
     46 C46        31.5067  -46.7260  -59.0752 C.3       11 UNK        -0.0868 
     47 S47        32.9727  -46.3571  -58.0440 S.3       11 UNK        -0.2515 
     48 C48        32.9695  -44.5402  -57.9557 C.3       11 UNK         0.0199 
     49 N          31.2794  -48.9359  -57.8963 N.am      5 UNK        -0.4607 
     50 C          30.7233  -50.0958  -57.5245 C.2       4 UNK         0.5031 
     51 O          29.5395  -50.3721  -57.7055 O.2       4 UNK        -0.5119 
     52 CA         31.6243  -51.0899  -56.7730 C.3       4 UNK         0.0263 
     53 CB         32.4020  -51.9695  -57.7642 C.3       4 UNK        -0.1967 
     54 N          32.5592  -50.4325  -55.8527 N.am      4 UNK        -0.4237 
     55 C          32.1883  -49.6936  -54.7980 C.2       3 UNK         0.4908 
     56 O          31.0125  -49.5032  -54.4770 O.2       3 UNK        -0.5102 
     57 CA         33.3227  -48.9974  -54.0304 C.3       3 UNK         0.0241 
     58 CB         33.7502  -47.7111  -54.7562 C.3       3 UNK        -0.1971 
     59 N          32.9314  -48.6416  -52.6690 N.am      3 UNK        -0.4139 
     60 C          32.8608  -49.4885  -51.6335 C.2       2 UNK         0.5016 
     61 O          33.1005  -50.6949  -51.7177 O.2       2 UNK        -0.5319 
     62 CA         32.4852  -48.8623  -50.2717 C.3       2 UNK         0.0286 
     63 CB         32.9037  -49.7341  -49.0680 C.3       2 UNK        -0.1963 
     64 N          32.9796  -47.4826  -50.1280 N.am      2 UNK        -0.4790 
     65 C          34.2573  -47.0656  -50.1456 C.2       1 UNK         0.5024 
     66 O          35.2241  -47.8295  -50.1391 O.2       1 UNK        -0.4888 
     67 H67        36.2515  -44.5113  -46.7585 H         1 UNK         0.0892 
     68 H68        37.7639  -45.3240  -47.1652 H         1 UNK         0.0892 
     69 H69        37.5559  -43.6092  -47.5309 H         1 UNK         0.0892 
     70 H70        34.6212  -45.0704  -48.1693 H         1 UNK         0.3107 
     71 H71        35.1676  -45.3899  -51.0753 H         1 UNK         0.0773 
     72 H72        32.5068  -44.8060  -49.6786 H         1 UNK         0.0680 
     73 H73        33.5267  -43.6109  -50.4163 H         1 UNK         0.0680 
     74 H74        33.9283  -43.3701  -53.1252 H         1 UNK         0.0650 
     75 H75        32.5130  -42.5902  -52.4493 H         1 UNK         0.0650 
     76 H76        33.8634  -44.3314  -55.3958 H         1 UNK         0.1397 
     77 H77        30.4110  -43.6484  -57.8270 H         1 UNK         0.1363 
     78 H78        30.3243  -42.6754  -53.6417 H         1 UNK         0.1355 
     79 H79        28.7041  -41.5607  -55.5906 H         1 UNK         0.0707 
     80 H80        28.1954  -43.1236  -54.9948 H         1 UNK         0.0707 
     81 H81        26.0121  -42.3328  -55.9388 H         1 UNK         0.1034 
     82 H82        25.4710  -42.6494  -57.5643 H         1 UNK         0.1034 
     83 H83        26.4839  -44.7774  -55.6386 H         1 UNK         0.0482 
     84 H84        24.8402  -46.4351  -54.9615 H         1 UNK         0.3460 
     85 H85        23.2657  -45.8187  -54.4861 H         1 UNK         0.3460 
     86 H86        26.6608  -46.0393  -57.4595 H         1 UNK         0.2989 
     87 H87        24.4900  -46.6992  -60.2117 H         1 UNK         0.0559 
     88 H88        27.3645  -45.6462  -60.1350 H         1 UNK         0.0848 
     89 H89        26.0412  -44.9911  -61.0860 H         1 UNK         0.0848 
     90 H90        26.6540  -46.5988  -61.4378 H         1 UNK         0.0848 
     91 H91        26.8887  -47.7069  -58.7337 H         1 UNK         0.3144 
     92 H92        25.3582  -50.9874  -58.5846 H         1 UNK         0.0727 
     93 H93        27.8511  -49.7933  -59.9021 H         1 UNK         0.0790 
     94 H94        26.5819  -50.6822  -60.7339 H         1 UNK         0.0790 
     95 H95        27.5765  -51.4941  -59.5356 H         1 UNK         0.0790 
     96 H96        27.7824  -49.9982  -57.4291 H         1 UNK         0.3215 
     97 H97        26.4370  -49.8587  -54.0907 H         1 UNK         0.0863 
     98 H98        28.3853  -51.3791  -53.8309 H         1 UNK         0.0808 
     99 H99        28.4426  -51.6455  -55.5711 H         1 UNK         0.0808 
    100 H100       27.0608  -52.2029  -54.6398 H         1 UNK         0.0808 
    101 H101       29.0364  -49.2364  -55.1370 H         1 UNK         0.3118 
    102 H102       28.5043  -45.7278  -55.5067 H         1 UNK         0.0546 
    103 H103       30.5595  -45.8247  -54.0578 H         1 UNK         0.0828 
    104 H104       30.0212  -47.3724  -53.4180 H         1 UNK         0.0828 
    105 H105       29.0597  -45.9273  -53.1505 H         1 UNK         0.0828 
    106 H106       30.7459  -47.4554  -55.9387 H         1 UNK         0.3005 
    107 H107       29.9827  -48.2098  -59.3259 H         1 UNK         0.1257 
    108 H108       30.9612  -45.8079  -59.3026 H         1 UNK         0.0775 
    109 H109       31.8849  -47.0772  -60.0364 H         1 UNK         0.0775 
    110 H110       34.0035  -44.1962  -57.9012 H         1 UNK         0.0840 
    111 H111       32.5650  -44.1153  -58.8756 H         1 UNK         0.0840 
    112 H112       32.2590  -48.7780  -57.7092 H         1 UNK         0.2987 
    113 H113       30.9745  -51.7363  -56.1792 H         1 UNK         0.0785 
    114 H114       31.7217  -52.4816  -58.4463 H         1 UNK         0.0798 
    115 H115       32.9769  -52.7378  -57.2467 H         1 UNK         0.0798 
    116 H116       33.0930  -51.3839  -58.3720 H         1 UNK         0.0798 
    117 H117       33.5435  -50.5353  -56.0556 H         1 UNK         0.3079 
    118 H118       34.1778  -49.6748  -53.9777 H         1 UNK         0.0794 
    119 H119       32.9187  -47.0140  -54.8718 H         1 UNK         0.0786 
    120 H120       34.1360  -47.9317  -55.7517 H         1 UNK         0.0786 
    121 H121       34.5432  -47.1939  -54.2153 H         1 UNK         0.0786 
    122 H122       32.6898  -47.6746  -52.5093 H         1 UNK         0.3032 
    123 H123       31.3954  -48.8011  -50.2668 H         1 UNK         0.1094 
    124 H124       33.9788  -49.9141  -49.0492 H         1 UNK         0.0794 
    125 H125       32.6244  -49.2673  -48.1236 H         1 UNK         0.0794 
    126 H126       32.4143  -50.7082  -49.1035 H         1 UNK         0.0794 
    127 H127       32.2663  -46.7651  -50.1468 H         1 UNK         0.3016 
@<TRIPOS>BOND
     1    1    2 1    
     2    1   67 1    
     3    1   68 1    
     4    1   69 1    
     5    2    3 2    
     6    2    4 am   BACKBONE|DICT|INTERRES
     7    4    5 1    
     8    4   70 1    
     9    5    6 1    
    10    5   65 1    
    11    5   71 1    
    12    6    7 1    
    13    6   72 1    
    14    6   73 1    
    15    7    8 1    
    16    8    9 1    
    17    8   74 1    
    18    8   75 1    
    19    9   10 ar   
    20    9   14 ar   
    21   10   11 ar   
    22   10   76 1    
    23   11   12 ar   
    24   11   48 1    
    25   12   13 ar   
    26   12   77 1    
    27   13   14 ar   
    28   13   15 1    
    29   14   78 1    
    30   15   16 1    
    31   15   79 1    
    32   15   80 1    
    33   16   17 1    
    34   17   18 1    
    35   17   81 1    
    36   17   82 1    
    37   18   19 1    
    38   18   22 1    
    39   18   83 1    
    40   19   20 am   BACKBONE|DICT|INTERRES
    41   19   21 2    
    42   20   84 1    
    43   20   85 1    
    44   22   23 am   BACKBONE|DICT|INTERRES
    45   22   86 1    
    46   23   24 2    
    47   23   25 1    
    48   25   26 1    
    49   25   27 1    
    50   25   87 1    
    51   26   88 1    
    52   26   89 1    
    53   26   90 1    
    54   27   28 am   BACKBONE|DICT|INTERRES
    55   27   91 1    
    56   28   29 2    
    57   28   30 1    
    58   30   31 1    
    59   30   32 1    
    60   30   92 1    
    61   31   93 1    
    62   31   94 1    
    63   31   95 1    
    64   32   33 am   BACKBONE|DICT|INTERRES
    65   32   96 1    
    66   33   34 2    
    67   33   35 1    
    68   35   36 1    
    69   35   37 1    
    70   35   97 1    
    71   36   98 1    
    72   36   99 1    
    73   36  100 1    
    74   37   38 am   BACKBONE|DICT|INTERRES
    75   37  101 1    
    76   38   39 2    
    77   38   40 1    
    78   40   41 1    
    79   40   42 1    
    80   40  102 1    
    81   41  103 1    
    82   41  104 1    
    83   41  105 1    
    84   42   43 am   BACKBONE|DICT|INTERRES
    85   42  106 1    
    86   43   44 2    
    87   43   45 1    
    88   45   46 1    
    89   45   49 1    
    90   45  107 1    
    91   46   47 1    
    92   46  108 1    
    93   46  109 1    
    94   47   48 1    
    95   48  110 1    
    96   48  111 1    
    97   49   50 am   BACKBONE|DICT|INTERRES
    98   49  112 1    
    99   50   51 2    
   100   50   52 1    
   101   52   53 1    
   102   52   54 1    
   103   52  113 1    
   104   53  114 1    
   105   53  115 1    
   106   53  116 1    
   107   54   55 am   BACKBONE|DICT|INTERRES
   108   54  117 1    
   109   55   56 2    
   110   55   57 1    
   111   57   58 1    
   112   57   59 1    
   113   57  118 1    
   114   58  119 1    
   115   58  120 1    
   116   58  121 1    
   117   59   60 am   BACKBONE|DICT|INTERRES
   118   59  122 1    
   119   60   61 2    
   120   60   62 1    
   121   62   63 1    
   122   62   64 1    
   123   62  123 1    
   124   63  124 1    
   125   63  125 1    
   126   63  126 1    
   127   64   65 am   BACKBONE|DICT|INTERRES
   128   64  127 1    
   129   65   66 2    
@<TRIPOS>SUBSTRUCTURE
     1 UNK         1 GROUP             0       ****    0 ROOT    
