@<TRIPOS>MOLECULE
3R134
127   129    1
SMALL
USER_CHARGES


@<TRIPOS>ATOM
      1 CA         35.0427  -45.9309  -54.2950 C.3       0 UNK        -0.1968 
      2 C          35.2176  -46.1149  -52.7930 C.2       0 UNK         0.4852 
      3 O          36.2756  -46.5704  -52.3617 O.2       0 UNK        -0.5359 
      4 N          34.2227  -45.7924  -51.9577 N.am      1 UNK        -0.4300 
      5 CA         32.8906  -45.2730  -52.2910 C.3       1 UNK         0.0863 
      6 C6         32.6821  -43.8379  -51.7357 C.3       11 UNK        -0.0953 
      7 S7         33.8141  -42.6308  -52.5077 S.3       11 UNK        -0.2369 
      8 C8         32.6676  -41.5203  -53.3885 C.3       11 UNK         0.0226 
      9 C9         31.8011  -42.2536  -54.4037 C.ar      11 UNK        -0.0699 
     10 C10        32.3876  -42.9196  -55.4846 C.ar      11 UNK        -0.0804 
     11 C11        31.5957  -43.6133  -56.4037 C.ar      11 UNK        -0.0871 
     12 C12        30.2073  -43.6203  -56.2470 C.ar      11 UNK        -0.1008 
     13 C13        29.6078  -42.9445  -55.1814 C.ar      11 UNK        -0.0735 
     14 C14        30.4097  -42.2653  -54.2606 C.ar      11 UNK        -0.0945 
     15 C15        28.0989  -42.9880  -54.9988 C.3       11 UNK         0.0169 
     16 S16        27.2477  -41.5468  -55.7116 S.3       11 UNK        -0.2669 
     17 C17        27.3093  -41.8840  -57.5066 C.3       11 UNK        -0.0850 
     18 CA         25.9813  -42.4837  -58.0694 C.3       10 UNK         0.0855 
     19 C          25.8778  -42.4144  -59.6269 C.2       10 UNK         0.5543 
     20 N          26.2725  -41.3073  -60.2425 N.am      10 UNK        -0.7343 
     21 O          25.3913  -43.3295  -60.2896 O.2       10 UNK        -0.5027 
     22 N          25.6712  -43.8224  -57.5282 N.am      10 UNK        -0.4495 
     23 C          26.3815  -44.9414  -57.7272 C.2       10 UNK         0.4903 
     24 O          27.4649  -44.9813  -58.3137 O.2       10 UNK        -0.4860 
     25 CA         25.7896  -46.2414  -57.1600 C.3       9 UNK         0.0227 
     26 CB         25.6314  -47.3058  -58.2588 C.3       9 UNK        -0.1964 
     27 N          26.6739  -46.7551  -56.1176 N.am      9 UNK        -0.4231 
     28 C          26.6540  -46.3450  -54.8443 C.2       9 UNK         0.5014 
     29 O          25.7934  -45.5893  -54.3869 O.2       9 UNK        -0.5270 
     30 CA         27.8101  -46.8323  -53.9493 C.3       8 UNK         0.0284 
     31 CB         27.7152  -46.2986  -52.5041 C.3       8 UNK        -0.1977 
     32 N          27.9675  -48.2899  -53.9542 N.am      8 UNK        -0.4342 
     33 C          27.0592  -49.2165  -53.6130 C.2       8 UNK         0.5039 
     34 O          25.9170  -48.9662  -53.2238 O.2       8 UNK        -0.5547 
     35 CA         27.5370  -50.6767  -53.7252 C.3       7 UNK         0.0281 
     36 CB         26.4420  -51.7146  -53.3954 C.3       7 UNK        -0.1963 
     37 N          28.1612  -50.9414  -55.0278 N.am      7 UNK        -0.4444 
     38 C          27.5675  -50.9326  -56.2299 C.2       7 UNK         0.5104 
     39 O          26.3603  -50.7657  -56.4098 O.2       7 UNK        -0.5100 
     40 CA         28.5099  -51.1322  -57.4339 C.3       6 UNK         0.0396 
     41 CB         27.8016  -50.9244  -58.7893 C.3       6 UNK        -0.1801 
     42 N          29.7250  -50.3084  -57.3591 N.am      6 UNK        -0.4747 
     43 C          29.7873  -48.9691  -57.2704 C.2       6 UNK         0.5012 
     44 O          28.7925  -48.2523  -57.1639 O.2       6 UNK        -0.5003 
     45 CA         31.1906  -48.3306  -57.2851 C.3       5 UNK         0.0782 
     46 C46        31.1761  -46.8639  -56.7861 C.3       11 UNK        -0.0868 
     47 S47        32.7733  -46.0280  -57.0603 S.3       11 UNK        -0.2515 
     48 C48        32.2399  -44.3614  -57.5609 C.3       11 UNK         0.0199 
     49 N          32.1067  -49.1640  -56.5049 N.am      5 UNK        -0.4607 
     50 C          33.1609  -49.8286  -56.9943 C.2       4 UNK         0.5031 
     51 O          33.5098  -49.7851  -58.1740 O.2       4 UNK        -0.5119 
     52 CA         33.9581  -50.7119  -56.0138 C.3       4 UNK         0.0263 
     53 CB         35.2326  -49.9823  -55.5575 C.3       4 UNK        -0.1967 
     54 N          33.2003  -51.1332  -54.8308 N.am      4 UNK        -0.4237 
     55 C          32.1022  -51.9028  -54.8442 C.2       3 UNK         0.4908 
     56 O          31.6162  -52.3922  -55.8638 O.2       3 UNK        -0.5102 
     57 CA         31.3860  -52.1109  -53.4977 C.3       3 UNK         0.0241 
     58 CB         31.9308  -53.3621  -52.7911 C.3       3 UNK        -0.1971 
     59 N          31.4570  -50.9643  -52.5804 N.am      3 UNK        -0.4139 
     60 C          31.0830  -49.7043  -52.8498 C.2       2 UNK         0.5016 
     61 O          30.6649  -49.3387  -53.9518 O.2       2 UNK        -0.5319 
     62 CA         31.1852  -48.6730  -51.7175 C.3       2 UNK         0.0286 
     63 CB         31.7803  -49.2188  -50.3999 C.3       2 UNK        -0.1963 
     64 N          31.9712  -47.5353  -52.1892 N.am      2 UNK        -0.4790 
     65 C          31.8644  -46.2795  -51.7363 C.2       1 UNK         0.5024 
     66 O          31.0476  -45.9329  -50.8818 O.2       1 UNK        -0.4888 
     67 H67        35.9792  -46.1207  -54.8186 H         1 UNK         0.0892 
     68 H68        34.3006  -46.6308  -54.6749 H         1 UNK         0.0892 
     69 H69        34.7301  -44.9151  -54.5346 H         1 UNK         0.0892 
     70 H70        34.3675  -45.9522  -50.9705 H         1 UNK         0.3107 
     71 H71        32.7252  -45.2422  -53.3689 H         1 UNK         0.0773 
     72 H72        32.8484  -43.8146  -50.6571 H         1 UNK         0.0680 
     73 H73        31.6517  -43.5122  -51.8873 H         1 UNK         0.0680 
     74 H74        32.0517  -40.9986  -52.6543 H         1 UNK         0.0650 
     75 H75        33.2470  -40.7534  -53.9040 H         1 UNK         0.0650 
     76 H76        33.4631  -42.9129  -55.5981 H         1 UNK         0.1397 
     77 H77        29.5914  -44.1606  -56.9520 H         1 UNK         0.1363 
     78 H78        29.9475  -41.7515  -53.4287 H         1 UNK         0.1355 
     79 H79        27.8582  -43.0497  -53.9365 H         1 UNK         0.0707 
     80 H80        27.7002  -43.8899  -55.4523 H         1 UNK         0.0707 
     81 H81        28.1594  -42.5177  -57.7528 H         1 UNK         0.1034 
     82 H82        27.5289  -40.9231  -57.9721 H         1 UNK         0.1034 
     83 H83        25.1652  -41.8496  -57.7211 H         1 UNK         0.0482 
     84 H84        26.1870  -41.2532  -61.2456 H         1 UNK         0.3460 
     85 H85        26.6335  -40.5182  -59.7305 H         1 UNK         0.3460 
     86 H86        24.7963  -43.8925  -57.0290 H         1 UNK         0.2989 
     87 H87        24.8016  -46.0437  -56.7387 H         1 UNK         0.0559 
     88 H88        24.9496  -46.9626  -59.0378 H         1 UNK         0.0848 
     89 H89        25.2287  -48.2355  -57.8557 H         1 UNK         0.0848 
     90 H90        26.5838  -47.5367  -58.7378 H         1 UNK         0.0848 
     91 H91        27.4428  -47.3450  -56.4383 H         1 UNK         0.3144 
     92 H92        28.7239  -46.4261  -54.3861 H         1 UNK         0.0727 
     93 H93        28.5702  -46.6102  -51.9066 H         1 UNK         0.0790 
     94 H94        26.8113  -46.6458  -52.0027 H         1 UNK         0.0790 
     95 H95        27.6963  -45.2083  -52.4909 H         1 UNK         0.0790 
     96 H96        28.8828  -48.6249  -54.2437 H         1 UNK         0.3215 
     97 H97        28.3196  -50.7971  -52.9758 H         1 UNK         0.0863 
     98 H98        26.8212  -52.7328  -53.4802 H         1 UNK         0.0808 
     99 H99        25.5771  -51.6216  -54.0526 H         1 UNK         0.0808 
    100 H100       26.0830  -51.5864  -52.3736 H         1 UNK         0.0808 
    101 H101       29.1686  -51.0217  -55.0232 H         1 UNK         0.3118 
    102 H102       28.8416  -52.1707  -57.3917 H         1 UNK         0.0546 
    103 H103       27.4091  -49.9123  -58.8900 H         1 UNK         0.0828 
    104 H104       26.9610  -51.6104  -58.9005 H         1 UNK         0.0828 
    105 H105       28.4787  -51.1062  -59.6236 H         1 UNK         0.0828 
    106 H106       30.5981  -50.8212  -57.3716 H         1 UNK         0.3005 
    107 H107       31.4898  -48.3194  -58.3356 H         1 UNK         0.1257 
    108 H108       30.4054  -46.2998  -57.3130 H         1 UNK         0.0775 
    109 H109       30.9280  -46.8133  -55.7243 H         1 UNK         0.0775 
    110 H110       33.1080  -43.8065  -57.9199 H         1 UNK         0.0840 
    111 H111       31.5543  -44.4310  -58.4070 H         1 UNK         0.0840 
    112 H112       31.8465  -49.2883  -55.5319 H         1 UNK         0.2987 
    113 H113       34.2522  -51.6128  -56.5565 H         1 UNK         0.0785 
    114 H114       35.8607  -50.6259  -54.9412 H         1 UNK         0.0798 
    115 H115       35.0014  -49.0855  -54.9819 H         1 UNK         0.0798 
    116 H116       35.8332  -49.6724  -56.4140 H         1 UNK         0.0798 
    117 H117       33.5240  -50.7869  -53.9398 H         1 UNK         0.3079 
    118 H118       30.3318  -52.2869  -53.7161 H         1 UNK         0.0794 
    119 H119       31.8716  -54.2359  -53.4420 H         1 UNK         0.0786 
    120 H120       31.3577  -53.5929  -51.8928 H         1 UNK         0.0786 
    121 H121       32.9757  -53.2417  -52.5019 H         1 UNK         0.0786 
    122 H122       31.7915  -51.1632  -51.6482 H         1 UNK         0.3032 
    123 H123       30.1631  -48.3436  -51.5205 H         1 UNK         0.1094 
    124 H124       31.7808  -48.4521  -49.6248 H         1 UNK         0.0794 
    125 H125       31.1941  -50.0519  -50.0094 H         1 UNK         0.0794 
    126 H126       32.8105  -49.5553  -50.5242 H         1 UNK         0.0794 
    127 H127       32.6409  -47.7382  -52.9173 H         1 UNK         0.3016 
@<TRIPOS>BOND
     1    1    2 1    
     2    1   67 1    
     3    1   68 1    
     4    1   69 1    
     5    2    3 2    
     6    2    4 am   BACKBONE|DICT|INTERRES
     7    4    5 1    
     8    4   70 1    
     9    5    6 1    
    10    5   65 1    
    11    5   71 1    
    12    6    7 1    
    13    6   72 1    
    14    6   73 1    
    15    7    8 1    
    16    8    9 1    
    17    8   74 1    
    18    8   75 1    
    19    9   10 ar   
    20    9   14 ar   
    21   10   11 ar   
    22   10   76 1    
    23   11   12 ar   
    24   11   48 1    
    25   12   13 ar   
    26   12   77 1    
    27   13   14 ar   
    28   13   15 1    
    29   14   78 1    
    30   15   16 1    
    31   15   79 1    
    32   15   80 1    
    33   16   17 1    
    34   17   18 1    
    35   17   81 1    
    36   17   82 1    
    37   18   19 1    
    38   18   22 1    
    39   18   83 1    
    40   19   20 am   BACKBONE|DICT|INTERRES
    41   19   21 2    
    42   20   84 1    
    43   20   85 1    
    44   22   23 am   BACKBONE|DICT|INTERRES
    45   22   86 1    
    46   23   24 2    
    47   23   25 1    
    48   25   26 1    
    49   25   27 1    
    50   25   87 1    
    51   26   88 1    
    52   26   89 1    
    53   26   90 1    
    54   27   28 am   BACKBONE|DICT|INTERRES
    55   27   91 1    
    56   28   29 2    
    57   28   30 1    
    58   30   31 1    
    59   30   32 1    
    60   30   92 1    
    61   31   93 1    
    62   31   94 1    
    63   31   95 1    
    64   32   33 am   BACKBONE|DICT|INTERRES
    65   32   96 1    
    66   33   34 2    
    67   33   35 1    
    68   35   36 1    
    69   35   37 1    
    70   35   97 1    
    71   36   98 1    
    72   36   99 1    
    73   36  100 1    
    74   37   38 am   BACKBONE|DICT|INTERRES
    75   37  101 1    
    76   38   39 2    
    77   38   40 1    
    78   40   41 1    
    79   40   42 1    
    80   40  102 1    
    81   41  103 1    
    82   41  104 1    
    83   41  105 1    
    84   42   43 am   BACKBONE|DICT|INTERRES
    85   42  106 1    
    86   43   44 2    
    87   43   45 1    
    88   45   46 1    
    89   45   49 1    
    90   45  107 1    
    91   46   47 1    
    92   46  108 1    
    93   46  109 1    
    94   47   48 1    
    95   48  110 1    
    96   48  111 1    
    97   49   50 am   BACKBONE|DICT|INTERRES
    98   49  112 1    
    99   50   51 2    
   100   50   52 1    
   101   52   53 1    
   102   52   54 1    
   103   52  113 1    
   104   53  114 1    
   105   53  115 1    
   106   53  116 1    
   107   54   55 am   BACKBONE|DICT|INTERRES
   108   54  117 1    
   109   55   56 2    
   110   55   57 1    
   111   57   58 1    
   112   57   59 1    
   113   57  118 1    
   114   58  119 1    
   115   58  120 1    
   116   58  121 1    
   117   59   60 am   BACKBONE|DICT|INTERRES
   118   59  122 1    
   119   60   61 2    
   120   60   62 1    
   121   62   63 1    
   122   62   64 1    
   123   62  123 1    
   124   63  124 1    
   125   63  125 1    
   126   63  126 1    
   127   64   65 am   BACKBONE|DICT|INTERRES
   128   64  127 1    
   129   65   66 2    
@<TRIPOS>SUBSTRUCTURE
     1 UNK         1 GROUP             0       ****    0 ROOT    
