@<TRIPOS>MOLECULE
3R134
127   129    1
SMALL
USER_CHARGES


@<TRIPOS>ATOM
      1 CA         34.9657  -44.7182  -46.9072 C.3       0 UNK        -0.1968 
      2 C          35.1726  -45.1344  -48.3564 C.2       0 UNK         0.4852 
      3 O          36.2874  -45.4998  -48.7339 O.2       0 UNK        -0.5359 
      4 N          34.1110  -45.0728  -49.1701 N.am      1 UNK        -0.4300 
      5 CA         34.1087  -45.4767  -50.5798 C.3       1 UNK         0.0863 
      6 C6         32.8431  -44.9835  -51.3209 C.3       11 UNK        -0.0953 
      7 S7         32.6780  -43.1709  -51.3097 S.3       11 UNK        -0.2369 
      8 C8         31.0623  -42.9758  -52.1402 C.3       11 UNK         0.0226 
      9 C9         31.0594  -43.0895  -53.6687 C.ar      11 UNK        -0.0699 
     10 C10        32.2112  -43.3376  -54.4290 C.ar      11 UNK        -0.0804 
     11 C11        32.1570  -43.3682  -55.8264 C.ar      11 UNK        -0.0871 
     12 C12        30.9320  -43.1623  -56.4715 C.ar      11 UNK        -0.1008 
     13 C13        29.7730  -42.9138  -55.7294 C.ar      11 UNK        -0.0735 
     14 C14        29.8467  -42.8861  -54.3338 C.ar      11 UNK        -0.0945 
     15 C15        28.4542  -42.5911  -56.4221 C.3       11 UNK         0.0169 
     16 S16        27.1816  -43.8604  -56.1298 S.3       11 UNK        -0.2669 
     17 C17        27.5471  -45.0640  -57.4507 C.3       11 UNK        -0.0850 
     18 CA         26.4530  -45.1119  -58.5491 C.3       10 UNK         0.0855 
     19 C          26.8832  -46.0324  -59.7300 C.2       10 UNK         0.5543 
     20 N          26.1531  -47.0919  -60.0631 N.am      10 UNK        -0.7343 
     21 O          27.8956  -45.7666  -60.3725 O.2       10 UNK        -0.5027 
     22 N          25.1294  -45.4375  -57.9929 N.am      10 UNK        -0.4495 
     23 C          23.9648  -45.1006  -58.5647 C.2       10 UNK         0.4903 
     24 O          23.8844  -44.3922  -59.5700 O.2       10 UNK        -0.4860 
     25 CA         22.6720  -45.6405  -57.9119 C.3       9 UNK         0.0227 
     26 CB         21.5009  -45.7398  -58.9134 C.3       9 UNK        -0.1964 
     27 N          22.8486  -46.9137  -57.2001 N.am      9 UNK        -0.4231 
     28 C          23.2966  -48.0699  -57.7105 C.2       9 UNK         0.5014 
     29 O          23.6044  -48.2395  -58.8929 O.2       9 UNK        -0.5270 
     30 CA         23.4962  -49.2184  -56.7054 C.3       8 UNK         0.0284 
     31 CB         22.6201  -50.4279  -57.0722 C.3       8 UNK        -0.1977 
     32 N          24.9003  -49.6350  -56.6329 N.am      8 UNK        -0.4342 
     33 C          25.9290  -48.8253  -56.3459 C.2       8 UNK         0.5039 
     34 O          25.7940  -47.6310  -56.0616 O.2       8 UNK        -0.5547 
     35 CA         27.3323  -49.4562  -56.4173 C.3       7 UNK         0.0281 
     36 CB         27.6826  -49.8726  -57.8567 C.3       7 UNK        -0.1963 
     37 N          28.3570  -48.5243  -55.9563 N.am      7 UNK        -0.4444 
     38 C          28.6264  -48.2117  -54.6858 C.2       7 UNK         0.5104 
     39 O          28.1173  -48.7792  -53.7169 O.2       7 UNK        -0.5100 
     40 CA         29.6438  -47.0705  -54.4792 C.3       6 UNK         0.0396 
     41 CB         29.9598  -46.8160  -52.9959 C.3       6 UNK        -0.1801 
     42 N          30.9001  -47.2971  -55.1986 N.am      6 UNK        -0.4747 
     43 C          31.0935  -47.1274  -56.5150 C.2       6 UNK         0.5012 
     44 O          30.2038  -46.7950  -57.2972 O.2       6 UNK        -0.5003 
     45 CA         32.4930  -47.4484  -57.0587 C.3       5 UNK         0.0782 
     46 C46        33.5319  -46.3680  -56.6701 C.3       11 UNK        -0.0868 
     47 S47        33.4252  -44.9297  -57.7870 S.3       11 UNK        -0.2515 
     48 C48        33.4444  -43.5246  -56.6298 C.3       11 UNK         0.0199 
     49 N          32.8864  -48.7876  -56.6201 N.am      5 UNK        -0.4607 
     50 C          32.7215  -49.8992  -57.3526 C.2       4 UNK         0.5031 
     51 O          32.3215  -49.8999  -58.5170 O.2       4 UNK        -0.5119 
     52 CA         33.0526  -51.2464  -56.6833 C.3       4 UNK         0.0263 
     53 CB         34.5015  -51.6571  -56.9920 C.3       4 UNK        -0.1967 
     54 N          32.8548  -51.2296  -55.2337 N.am      4 UNK        -0.4237 
     55 C          31.6667  -51.1089  -54.6238 C.2       3 UNK         0.4908 
     56 O          30.5891  -51.1365  -55.2171 O.2       3 UNK        -0.5102 
     57 CA         31.6808  -50.8974  -53.0976 C.3       3 UNK         0.0241 
     58 CB         31.3138  -52.2014  -52.3710 C.3       3 UNK        -0.1971 
     59 N          32.9537  -50.3890  -52.5654 N.am      3 UNK        -0.4139 
     60 C          33.4978  -49.2043  -52.8749 C.2       2 UNK         0.5016 
     61 O          33.0103  -48.4153  -53.6891 O.2       2 UNK        -0.5319 
     62 CA         34.8440  -48.8635  -52.2208 C.3       2 UNK         0.0286 
     63 CB         35.9924  -49.1009  -53.2151 C.3       2 UNK        -0.1963 
     64 N          34.8494  -47.4619  -51.8046 N.am      2 UNK        -0.4790 
     65 C          34.2126  -47.0075  -50.7184 C.2       1 UNK         0.5024 
     66 O          33.6745  -47.7410  -49.8841 O.2       1 UNK        -0.4888 
     67 H67        33.9397  -44.4044  -46.7153 H         1 UNK         0.0892 
     68 H68        35.1957  -45.5499  -46.2419 H         1 UNK         0.0892 
     69 H69        35.6260  -43.8882  -46.6572 H         1 UNK         0.0892 
     70 H70        33.2188  -44.7746  -48.8035 H         1 UNK         0.3107 
     71 H71        34.9846  -45.0301  -51.0561 H         1 UNK         0.0773 
     72 H72        31.9462  -45.4156  -50.8721 H         1 UNK         0.0680 
     73 H73        32.8592  -45.3144  -52.3611 H         1 UNK         0.0680 
     74 H74        30.3580  -43.6969  -51.7232 H         1 UNK         0.0650 
     75 H75        30.6791  -41.9895  -51.8749 H         1 UNK         0.0650 
     76 H76        33.1670  -43.4725  -53.9449 H         1 UNK         0.1397 
     77 H77        30.8909  -43.1639  -57.5522 H         1 UNK         0.1363 
     78 H78        28.9523  -42.6772  -53.7624 H         1 UNK         0.1355 
     79 H79        28.5945  -42.4465  -57.4945 H         1 UNK         0.0707 
     80 H80        28.0845  -41.6395  -56.0377 H         1 UNK         0.0707 
     81 H81        28.5203  -44.8299  -57.8863 H         1 UNK         0.1034 
     82 H82        27.6576  -46.0442  -56.9905 H         1 UNK         0.1034 
     83 H83        26.3926  -44.1076  -58.9730 H         1 UNK         0.0482 
     84 H84        25.2996  -47.3215  -59.5660 H         1 UNK         0.3460 
     85 H85        26.4456  -47.6619  -60.8400 H         1 UNK         0.3460 
     86 H86        25.1355  -46.0579  -57.1888 H         1 UNK         0.2989 
     87 H87        22.3940  -44.9074  -57.1534 H         1 UNK         0.0559 
     88 H88        21.7334  -46.4108  -59.7410 H         1 UNK         0.0848 
     89 H89        21.2661  -44.7648  -59.3423 H         1 UNK         0.0848 
     90 H90        20.5944  -46.1043  -58.4305 H         1 UNK         0.0848 
     91 H91        22.6735  -46.8777  -56.2048 H         1 UNK         0.3144 
     92 H92        23.2043  -48.8768  -55.7101 H         1 UNK         0.0727 
     93 H93        22.7077  -51.2230  -56.3315 H         1 UNK         0.0790 
     94 H94        21.5674  -50.1457  -57.1199 H         1 UNK         0.0790 
     95 H95        22.8898  -50.8420  -58.0448 H         1 UNK         0.0790 
     96 H96        25.0955  -50.5937  -56.8821 H         1 UNK         0.3215 
     97 H97        27.3477  -50.3393  -55.7749 H         1 UNK         0.0863 
     98 H98        26.9802  -50.6109  -58.2445 H         1 UNK         0.0808 
     99 H99        28.6761  -50.3203  -57.9050 H         1 UNK         0.0808 
    100 H100       27.6690  -49.0199  -58.5364 H         1 UNK         0.0808 
    101 H101       28.8369  -47.9809  -56.6672 H         1 UNK         0.3118 
    102 H102       29.1843  -46.1611  -54.8728 H         1 UNK         0.0546 
    103 H103       30.6056  -45.9477  -52.8850 H         1 UNK         0.0828 
    104 H104       30.4569  -47.6694  -52.5338 H         1 UNK         0.0828 
    105 H105       29.0508  -46.6142  -52.4281 H         1 UNK         0.0828 
    106 H106       31.6783  -47.6368  -54.6352 H         1 UNK         0.3005 
    107 H107       32.4133  -47.4524  -58.1488 H         1 UNK         0.1257 
    108 H108       34.5418  -46.7695  -56.7675 H         1 UNK         0.0775 
    109 H109       33.4321  -46.0624  -55.6264 H         1 UNK         0.0775 
    110 H110       34.3104  -43.6224  -55.9730 H         1 UNK         0.0840 
    111 H111       33.6041  -42.6101  -57.2024 H         1 UNK         0.0840 
    112 H112       33.1624  -48.8709  -55.6481 H         1 UNK         0.2987 
    113 H113       32.3833  -51.9985  -57.1069 H         1 UNK         0.0785 
    114 H114       34.6719  -51.7035  -58.0686 H         1 UNK         0.0798 
    115 H115       34.7299  -52.6434  -56.5874 H         1 UNK         0.0798 
    116 H116       35.2204  -50.9482  -56.5790 H         1 UNK         0.0798 
    117 H117       33.6854  -51.2288  -54.6610 H         1 UNK         0.3079 
    118 H118       30.9115  -50.1547  -52.8752 H         1 UNK         0.0794 
    119 H119       31.2209  -52.0451  -51.2961 H         1 UNK         0.0786 
    120 H120       32.0596  -52.9801  -52.5360 H         1 UNK         0.0786 
    121 H121       30.3559  -52.5878  -52.7227 H         1 UNK         0.0786 
    122 H122       33.4266  -50.9816  -51.8975 H         1 UNK         0.3032 
    123 H123       34.9978  -49.4983  -51.3447 H         1 UNK         0.1094 
    124 H124       35.8787  -48.4996  -54.1185 H         1 UNK         0.0794 
    125 H125       36.9576  -48.8573  -52.7705 H         1 UNK         0.0794 
    126 H126       36.0349  -50.1466  -53.5227 H         1 UNK         0.0794 
    127 H127       35.2235  -46.7984  -52.4676 H         1 UNK         0.3016 
@<TRIPOS>BOND
     1    1    2 1    
     2    1   67 1    
     3    1   68 1    
     4    1   69 1    
     5    2    3 2    
     6    2    4 am   BACKBONE|DICT|INTERRES
     7    4    5 1    
     8    4   70 1    
     9    5    6 1    
    10    5   65 1    
    11    5   71 1    
    12    6    7 1    
    13    6   72 1    
    14    6   73 1    
    15    7    8 1    
    16    8    9 1    
    17    8   74 1    
    18    8   75 1    
    19    9   10 ar   
    20    9   14 ar   
    21   10   11 ar   
    22   10   76 1    
    23   11   12 ar   
    24   11   48 1    
    25   12   13 ar   
    26   12   77 1    
    27   13   14 ar   
    28   13   15 1    
    29   14   78 1    
    30   15   16 1    
    31   15   79 1    
    32   15   80 1    
    33   16   17 1    
    34   17   18 1    
    35   17   81 1    
    36   17   82 1    
    37   18   19 1    
    38   18   22 1    
    39   18   83 1    
    40   19   20 am   BACKBONE|DICT|INTERRES
    41   19   21 2    
    42   20   84 1    
    43   20   85 1    
    44   22   23 am   BACKBONE|DICT|INTERRES
    45   22   86 1    
    46   23   24 2    
    47   23   25 1    
    48   25   26 1    
    49   25   27 1    
    50   25   87 1    
    51   26   88 1    
    52   26   89 1    
    53   26   90 1    
    54   27   28 am   BACKBONE|DICT|INTERRES
    55   27   91 1    
    56   28   29 2    
    57   28   30 1    
    58   30   31 1    
    59   30   32 1    
    60   30   92 1    
    61   31   93 1    
    62   31   94 1    
    63   31   95 1    
    64   32   33 am   BACKBONE|DICT|INTERRES
    65   32   96 1    
    66   33   34 2    
    67   33   35 1    
    68   35   36 1    
    69   35   37 1    
    70   35   97 1    
    71   36   98 1    
    72   36   99 1    
    73   36  100 1    
    74   37   38 am   BACKBONE|DICT|INTERRES
    75   37  101 1    
    76   38   39 2    
    77   38   40 1    
    78   40   41 1    
    79   40   42 1    
    80   40  102 1    
    81   41  103 1    
    82   41  104 1    
    83   41  105 1    
    84   42   43 am   BACKBONE|DICT|INTERRES
    85   42  106 1    
    86   43   44 2    
    87   43   45 1    
    88   45   46 1    
    89   45   49 1    
    90   45  107 1    
    91   46   47 1    
    92   46  108 1    
    93   46  109 1    
    94   47   48 1    
    95   48  110 1    
    96   48  111 1    
    97   49   50 am   BACKBONE|DICT|INTERRES
    98   49  112 1    
    99   50   51 2    
   100   50   52 1    
   101   52   53 1    
   102   52   54 1    
   103   52  113 1    
   104   53  114 1    
   105   53  115 1    
   106   53  116 1    
   107   54   55 am   BACKBONE|DICT|INTERRES
   108   54  117 1    
   109   55   56 2    
   110   55   57 1    
   111   57   58 1    
   112   57   59 1    
   113   57  118 1    
   114   58  119 1    
   115   58  120 1    
   116   58  121 1    
   117   59   60 am   BACKBONE|DICT|INTERRES
   118   59  122 1    
   119   60   61 2    
   120   60   62 1    
   121   62   63 1    
   122   62   64 1    
   123   62  123 1    
   124   63  124 1    
   125   63  125 1    
   126   63  126 1    
   127   64   65 am   BACKBONE|DICT|INTERRES
   128   64  127 1    
   129   65   66 2    
@<TRIPOS>SUBSTRUCTURE
     1 UNK         1 GROUP             0       ****    0 ROOT    
