@<TRIPOS>MOLECULE
3R134
127   129    1
SMALL
USER_CHARGES


@<TRIPOS>ATOM
      1 CA         35.5293  -47.1001  -58.0680 C.3       0 UNK        -0.1968 
      2 C          34.8191  -47.2522  -56.7320 C.2       0 UNK         0.4852 
      3 O          34.2296  -48.3012  -56.4724 O.2       0 UNK        -0.5359 
      4 N          34.8891  -46.2215  -55.8759 N.am      1 UNK        -0.4300 
      5 CA         34.2152  -46.1098  -54.5699 C.3       1 UNK         0.0863 
      6 C6         34.5387  -44.7677  -53.8622 C.3       11 UNK        -0.0953 
      7 S7         34.3630  -43.3082  -54.9464 S.3       11 UNK        -0.2369 
      8 C8         33.3126  -42.1975  -53.9566 C.3       11 UNK         0.0226 
      9 C9         31.8330  -42.5383  -54.0683 C.ar      11 UNK        -0.0699 
     10 C10        31.1034  -42.9204  -52.9386 C.ar      11 UNK        -0.0804 
     11 C11        29.7321  -43.1821  -53.0326 C.ar      11 UNK        -0.0871 
     12 C12        29.0971  -43.0857  -54.2751 C.ar      11 UNK        -0.1008 
     13 C13        29.8136  -42.6894  -55.4106 C.ar      11 UNK        -0.0735 
     14 C14        31.1796  -42.4162  -55.2982 C.ar      11 UNK        -0.0945 
     15 C15        29.1215  -42.5649  -56.7618 C.3       11 UNK         0.0169 
     16 S16        27.7973  -41.3179  -56.7489 S.3       11 UNK        -0.2669 
     17 C17        27.1390  -41.5062  -58.4420 C.3       11 UNK        -0.0850 
     18 CA         25.7387  -42.1887  -58.4822 C.3       10 UNK         0.0855 
     19 C          25.0561  -42.0733  -59.8816 C.2       10 UNK         0.5543 
     20 N          24.2395  -43.0331  -60.2994 N.am      10 UNK        -0.7343 
     21 O          25.2391  -41.0850  -60.5885 O.2       10 UNK        -0.5027 
     22 N          25.7272  -43.5476  -57.9016 N.am      10 UNK        -0.4495 
     23 C          26.3788  -44.6183  -58.3751 C.2       10 UNK         0.4903 
     24 O          27.1096  -44.6037  -59.3684 O.2       10 UNK        -0.4860 
     25 CA         26.1251  -45.9412  -57.6333 C.3       9 UNK         0.0227 
     26 CB         24.8895  -46.6548  -58.2053 C.3       9 UNK        -0.1964 
     27 N          27.2752  -46.8402  -57.7266 N.am      9 UNK        -0.4231 
     28 C          28.4032  -46.7069  -57.0208 C.2       9 UNK         0.5014 
     29 O          28.5732  -45.8474  -56.1583 O.2       9 UNK        -0.5270 
     30 CA         29.5024  -47.7456  -57.2916 C.3       8 UNK         0.0284 
     31 CB         30.8488  -47.3627  -56.6483 C.3       8 UNK        -0.1977 
     32 N          29.0866  -49.0469  -56.7763 N.am      8 UNK        -0.4342 
     33 C          28.2747  -49.9055  -57.4057 C.2       8 UNK         0.5039 
     34 O          27.8246  -49.7163  -58.5370 O.2       8 UNK        -0.5547 
     35 CA         27.8660  -51.1585  -56.6226 C.3       7 UNK         0.0281 
     36 CB         29.0570  -52.1171  -56.4597 C.3       7 UNK        -0.1963 
     37 N          27.3555  -50.7781  -55.3055 N.am      7 UNK        -0.4444 
     38 C          26.0574  -50.6387  -55.0020 C.2       7 UNK         0.5104 
     39 O          25.1377  -50.8949  -55.7798 O.2       7 UNK        -0.5100 
     40 CA         25.7194  -50.1258  -53.5888 C.3       6 UNK         0.0396 
     41 CB         25.5320  -51.3050  -52.6211 C.3       6 UNK        -0.1801 
     42 N          26.7368  -49.2188  -53.0534 N.am      6 UNK        -0.4747 
     43 C          26.9702  -47.9780  -53.5073 C.2       6 UNK         0.5012 
     44 O          26.2567  -47.4211  -54.3406 O.2       6 UNK        -0.5003 
     45 CA         28.2043  -47.2366  -52.9431 C.3       5 UNK         0.0782 
     46 C46        27.7618  -46.0939  -51.9957 C.3       11 UNK        -0.0868 
     47 S47        29.1650  -45.2162  -51.2183 S.3       11 UNK        -0.2515 
     48 C48        28.9341  -43.4993  -51.7755 C.3       11 UNK         0.0199 
     49 N          29.1926  -48.1215  -52.3081 N.am      5 UNK        -0.4607 
     50 C          29.8981  -49.0761  -52.9240 C.2       4 UNK         0.5031 
     51 O          29.6904  -49.4367  -54.0844 O.2       4 UNK        -0.5119 
     52 CA         30.9983  -49.7330  -52.0814 C.3       4 UNK         0.0263 
     53 CB         30.4349  -50.8360  -51.1622 C.3       4 UNK        -0.1967 
     54 N          32.1107  -50.1924  -52.9185 N.am      4 UNK        -0.4237 
     55 C          32.2126  -51.2937  -53.6813 C.2       3 UNK         0.4908 
     56 O          31.3867  -52.2068  -53.7005 O.2       3 UNK        -0.5102 
     57 CA         33.4505  -51.4060  -54.5970 C.3       3 UNK         0.0241 
     58 CB         33.0272  -51.3408  -56.0746 C.3       3 UNK        -0.1971 
     59 N          34.4650  -50.3762  -54.3432 N.am      3 UNK        -0.4139 
     60 C          35.2740  -50.3557  -53.2716 C.2       2 UNK         0.5016 
     61 O          35.3285  -51.2687  -52.4470 O.2       2 UNK        -0.5319 
     62 CA         36.1455  -49.1032  -53.0470 C.3       2 UNK         0.0286 
     63 CB         37.6063  -49.3911  -53.4301 C.3       2 UNK        -0.1963 
     64 N          35.6943  -47.9064  -53.7645 N.am      2 UNK        -0.4790 
     65 C          34.5127  -47.2872  -53.6130 C.2       1 UNK         0.5024 
     66 O          33.6638  -47.6367  -52.7923 O.2       1 UNK        -0.4888 
     67 H67        36.0168  -46.1301  -58.1638 H         1 UNK         0.0892 
     68 H68        36.2874  -47.8747  -58.1793 H         1 UNK         0.0892 
     69 H69        34.8145  -47.2030  -58.8838 H         1 UNK         0.0892 
     70 H70        35.3870  -45.3881  -56.1567 H         1 UNK         0.3107 
     71 H71        33.1425  -46.1329  -54.7735 H         1 UNK         0.0773 
     72 H72        33.8961  -44.6454  -52.9880 H         1 UNK         0.0680 
     73 H73        35.5643  -44.7682  -53.4874 H         1 UNK         0.0680 
     74 H74        33.4605  -41.1767  -54.3116 H         1 UNK         0.0650 
     75 H75        33.6465  -42.2079  -52.9178 H         1 UNK         0.0650 
     76 H76        31.5955  -42.9920  -51.9781 H         1 UNK         0.1397 
     77 H77        28.0395  -43.2952  -54.3609 H         1 UNK         0.1363 
     78 H78        31.7416  -42.1075  -56.1692 H         1 UNK         0.1355 
     79 H79        29.8405  -42.3060  -57.5406 H         1 UNK         0.0707 
     80 H80        28.7024  -43.5270  -57.0438 H         1 UNK         0.0707 
     81 H81        27.8500  -42.0462  -59.0691 H         1 UNK         0.1034 
     82 H82        27.0832  -40.5010  -58.8638 H         1 UNK         0.1034 
     83 H83        25.0893  -41.6037  -57.8300 H         1 UNK         0.0482 
     84 H84        24.0687  -43.8434  -59.7269 H         1 UNK         0.3460 
     85 H85        23.7938  -42.9454  -61.1992 H         1 UNK         0.3460 
     86 H86        25.1383  -43.6620  -57.0891 H         1 UNK         0.2989 
     87 H87        25.9423  -45.7235  -56.5787 H         1 UNK         0.0559 
     88 H88        25.0130  -46.8926  -59.2628 H         1 UNK         0.0848 
     89 H89        23.9978  -46.0340  -58.1113 H         1 UNK         0.0848 
     90 H90        24.6901  -47.5856  -57.6729 H         1 UNK         0.0848 
     91 H91        27.2192  -47.6038  -58.3901 H         1 UNK         0.3144 
     92 H92        29.6510  -47.8091  -58.3717 H         1 UNK         0.0727 
     93 H93        31.6186  -48.0946  -56.8891 H         1 UNK         0.0790 
     94 H94        30.7788  -47.2979  -55.5617 H         1 UNK         0.0790 
     95 H95        31.1955  -46.3941  -57.0107 H         1 UNK         0.0790 
     96 H96        29.3682  -49.2536  -55.8179 H         1 UNK         0.3215 
     97 H97        27.0923  -51.6773  -57.1930 H         1 UNK         0.0863 
     98 H98        29.8699  -51.6623  -55.8933 H         1 UNK         0.0808 
     99 H99        29.4590  -52.4098  -57.4305 H         1 UNK         0.0808 
    100 H100       28.7624  -53.0294  -55.9411 H         1 UNK         0.0808 
    101 H101       28.0471  -50.4880  -54.6223 H         1 UNK         0.3118 
    102 H102       24.7747  -49.5813  -53.6494 H         1 UNK         0.0546 
    103 H103       25.2222  -50.9634  -51.6334 H         1 UNK         0.0828 
    104 H104       26.4489  -51.8844  -52.5052 H         1 UNK         0.0828 
    105 H105       24.7604  -51.9862  -52.9828 H         1 UNK         0.0828 
    106 H106       27.3598  -49.5899  -52.3508 H         1 UNK         0.3005 
    107 H107       28.7055  -46.7790  -53.7976 H         1 UNK         0.1257 
    108 H108       27.1360  -46.4865  -51.1918 H         1 UNK         0.0775 
    109 H109       27.1407  -45.3803  -52.5403 H         1 UNK         0.0775 
    110 H110       27.8746  -43.2824  -51.9186 H         1 UNK         0.0840 
    111 H111       29.2616  -42.8346  -50.9746 H         1 UNK         0.0840 
    112 H112       29.4243  -47.8847  -51.3538 H         1 UNK         0.2987 
    113 H113       31.4288  -48.9581  -51.4448 H         1 UNK         0.0785 
    114 H114       31.2313  -51.3510  -50.6249 H         1 UNK         0.0798 
    115 H115       29.7619  -50.4131  -50.4157 H         1 UNK         0.0798 
    116 H116       29.8657  -51.5821  -51.7175 H         1 UNK         0.0798 
    117 H117       32.8462  -49.5010  -53.0173 H         1 UNK         0.3079 
    118 H118       33.9023  -52.3834  -54.4151 H         1 UNK         0.0794 
    119 H119       32.3576  -52.1643  -56.3259 H         1 UNK         0.0786 
    120 H120       33.8878  -51.4083  -56.7403 H         1 UNK         0.0786 
    121 H121       32.4999  -50.4130  -56.3004 H         1 UNK         0.0786 
    122 H122       34.4815  -49.5923  -54.9918 H         1 UNK         0.3032 
    123 H123       36.1069  -48.8790  -51.9786 H         1 UNK         0.1094 
    124 H124       37.9887  -50.2586  -52.8900 H         1 UNK         0.0794 
    125 H125       37.7101  -49.5994  -54.4958 H         1 UNK         0.0794 
    126 H126       38.2552  -48.5498  -53.1857 H         1 UNK         0.0794 
    127 H127       36.3152  -47.5511  -54.4774 H         1 UNK         0.3016 
@<TRIPOS>BOND
     1    1    2 1    
     2    1   67 1    
     3    1   68 1    
     4    1   69 1    
     5    2    3 2    
     6    2    4 am   BACKBONE|DICT|INTERRES
     7    4    5 1    
     8    4   70 1    
     9    5    6 1    
    10    5   65 1    
    11    5   71 1    
    12    6    7 1    
    13    6   72 1    
    14    6   73 1    
    15    7    8 1    
    16    8    9 1    
    17    8   74 1    
    18    8   75 1    
    19    9   10 ar   
    20    9   14 ar   
    21   10   11 ar   
    22   10   76 1    
    23   11   12 ar   
    24   11   48 1    
    25   12   13 ar   
    26   12   77 1    
    27   13   14 ar   
    28   13   15 1    
    29   14   78 1    
    30   15   16 1    
    31   15   79 1    
    32   15   80 1    
    33   16   17 1    
    34   17   18 1    
    35   17   81 1    
    36   17   82 1    
    37   18   19 1    
    38   18   22 1    
    39   18   83 1    
    40   19   20 am   BACKBONE|DICT|INTERRES
    41   19   21 2    
    42   20   84 1    
    43   20   85 1    
    44   22   23 am   BACKBONE|DICT|INTERRES
    45   22   86 1    
    46   23   24 2    
    47   23   25 1    
    48   25   26 1    
    49   25   27 1    
    50   25   87 1    
    51   26   88 1    
    52   26   89 1    
    53   26   90 1    
    54   27   28 am   BACKBONE|DICT|INTERRES
    55   27   91 1    
    56   28   29 2    
    57   28   30 1    
    58   30   31 1    
    59   30   32 1    
    60   30   92 1    
    61   31   93 1    
    62   31   94 1    
    63   31   95 1    
    64   32   33 am   BACKBONE|DICT|INTERRES
    65   32   96 1    
    66   33   34 2    
    67   33   35 1    
    68   35   36 1    
    69   35   37 1    
    70   35   97 1    
    71   36   98 1    
    72   36   99 1    
    73   36  100 1    
    74   37   38 am   BACKBONE|DICT|INTERRES
    75   37  101 1    
    76   38   39 2    
    77   38   40 1    
    78   40   41 1    
    79   40   42 1    
    80   40  102 1    
    81   41  103 1    
    82   41  104 1    
    83   41  105 1    
    84   42   43 am   BACKBONE|DICT|INTERRES
    85   42  106 1    
    86   43   44 2    
    87   43   45 1    
    88   45   46 1    
    89   45   49 1    
    90   45  107 1    
    91   46   47 1    
    92   46  108 1    
    93   46  109 1    
    94   47   48 1    
    95   48  110 1    
    96   48  111 1    
    97   49   50 am   BACKBONE|DICT|INTERRES
    98   49  112 1    
    99   50   51 2    
   100   50   52 1    
   101   52   53 1    
   102   52   54 1    
   103   52  113 1    
   104   53  114 1    
   105   53  115 1    
   106   53  116 1    
   107   54   55 am   BACKBONE|DICT|INTERRES
   108   54  117 1    
   109   55   56 2    
   110   55   57 1    
   111   57   58 1    
   112   57   59 1    
   113   57  118 1    
   114   58  119 1    
   115   58  120 1    
   116   58  121 1    
   117   59   60 am   BACKBONE|DICT|INTERRES
   118   59  122 1    
   119   60   61 2    
   120   60   62 1    
   121   62   63 1    
   122   62   64 1    
   123   62  123 1    
   124   63  124 1    
   125   63  125 1    
   126   63  126 1    
   127   64   65 am   BACKBONE|DICT|INTERRES
   128   64  127 1    
   129   65   66 2    
@<TRIPOS>SUBSTRUCTURE
     1 UNK         1 GROUP             0       ****    0 ROOT    
