@<TRIPOS>MOLECULE
3R134
127   129    1
SMALL
USER_CHARGES


@<TRIPOS>ATOM
      1 CA         33.5541  -46.1674  -51.5489 C.3       0 UNK        -0.1968 
      2 C          33.5956  -46.2662  -53.0659 C.2       0 UNK         0.4852 
      3 O          32.6300  -46.7400  -53.6637 O.2       0 UNK        -0.5359 
      4 N          34.7069  -45.8301  -53.6826 N.am      1 UNK        -0.4300 
      5 CA         35.0012  -45.7997  -55.1270 C.3       1 UNK         0.0863 
      6 C6         34.0080  -44.9383  -55.9550 C.3       11 UNK        -0.0953 
      7 S7         34.3500  -43.1507  -55.8457 S.3       11 UNK        -0.2369 
      8 C8         33.5439  -42.6587  -54.2821 C.3       11 UNK         0.0226 
      9 C9         32.0428  -42.9315  -54.1865 C.ar      11 UNK        -0.0699 
     10 C10        31.4803  -43.1332  -52.9222 C.ar      11 UNK        -0.0804 
     11 C11        30.1080  -43.3482  -52.7731 C.ar      11 UNK        -0.0871 
     12 C12        29.2923  -43.3812  -53.9075 C.ar      11 UNK        -0.1008 
     13 C13        29.8360  -43.1731  -55.1785 C.ar      11 UNK        -0.0735 
     14 C14        31.2080  -42.9399  -55.3117 C.ar      11 UNK        -0.0945 
     15 C15        28.9329  -43.1765  -56.4018 C.3       11 UNK         0.0169 
     16 S16        27.9354  -41.6572  -56.4578 S.3       11 UNK        -0.2669 
     17 C17        27.0610  -41.8175  -58.0499 C.3       11 UNK        -0.0850 
     18 CA         25.6776  -42.5179  -57.8924 C.3       10 UNK         0.0855 
     19 C          24.6468  -42.1179  -58.9969 C.2       10 UNK         0.5543 
     20 N          23.6921  -42.9728  -59.3441 N.am      10 UNK        -0.7343 
     21 O          24.6829  -41.0073  -59.5216 O.2       10 UNK        -0.5027 
     22 N          25.8110  -43.9714  -57.6656 N.am      10 UNK        -0.4495 
     23 C          26.2390  -44.8666  -58.5674 C.2       10 UNK         0.4903 
     24 O          26.5794  -44.5763  -59.7153 O.2       10 UNK        -0.4860 
     25 CA         26.2569  -46.3334  -58.1045 C.3       9 UNK         0.0227 
     26 CB         25.7327  -47.2905  -59.1943 C.3       9 UNK        -0.1964 
     27 N          27.5698  -46.7687  -57.6179 N.am      9 UNK        -0.4231 
     28 C          28.7326  -46.8505  -58.2861 C.2       9 UNK         0.5014 
     29 O          28.9115  -46.4762  -59.4450 O.2       9 UNK        -0.5270 
     30 CA         29.8955  -47.5308  -57.5416 C.3       8 UNK         0.0284 
     31 CB         30.5798  -46.5576  -56.5705 C.3       8 UNK        -0.1977 
     32 N          29.4682  -48.7354  -56.8239 N.am      8 UNK        -0.4342 
     33 C          29.0143  -49.8538  -57.4120 C.2       8 UNK         0.5039 
     34 O          28.9985  -50.0340  -58.6301 O.2       8 UNK        -0.5547 
     35 CA         28.4612  -50.9508  -56.4886 C.3       7 UNK         0.0281 
     36 CB         29.5792  -51.8918  -56.0070 C.3       7 UNK        -0.1963 
     37 N          27.7568  -50.3757  -55.3408 N.am      7 UNK        -0.4444 
     38 C          26.4977  -49.9155  -55.3859 C.2       7 UNK         0.5104 
     39 O          25.7672  -50.0137  -56.3717 O.2       7 UNK        -0.5100 
     40 CA         25.9571  -49.2187  -54.1234 C.3       6 UNK         0.0396 
     41 CB         25.2114  -50.2261  -53.2343 C.3       6 UNK        -0.1801 
     42 N          26.9966  -48.5541  -53.3331 N.am      6 UNK        -0.4747 
     43 C          27.6771  -47.4651  -53.7223 C.2       6 UNK         0.5012 
     44 O          27.4719  -46.8767  -54.7837 O.2       6 UNK        -0.5003 
     45 CA         28.8096  -46.9859  -52.7896 C.3       5 UNK         0.0782 
     46 C46        28.2501  -45.9894  -51.7487 C.3       11 UNK        -0.0868 
     47 S47        29.5749  -45.2048  -50.7727 S.3       11 UNK        -0.2515 
     48 C48        29.5085  -43.4914  -51.3810 C.3       11 UNK         0.0199 
     49 N          29.5212  -48.0994  -52.1457 N.am      5 UNK        -0.4607 
     50 C          30.1478  -49.0880  -52.7923 C.2       4 UNK         0.5031 
     51 O          30.1836  -49.1910  -54.0227 O.2       4 UNK        -0.5119 
     52 CA         30.7622  -50.1889  -51.9228 C.3       4 UNK         0.0263 
     53 CB         29.6655  -51.1324  -51.3903 C.3       4 UNK        -0.1967 
     54 N          31.7040  -50.9261  -52.7532 N.am      4 UNK        -0.4237 
     55 C          32.6513  -51.7770  -52.3445 C.2       3 UNK         0.4908 
     56 O          32.8289  -52.0975  -51.1687 O.2       3 UNK        -0.5102 
     57 CA         33.5642  -52.3702  -53.4365 C.3       3 UNK         0.0241 
     58 CB         33.0507  -53.7538  -53.8683 C.3       3 UNK        -0.1971 
     59 N          33.6865  -51.5109  -54.6206 N.am      3 UNK        -0.4139 
     60 C          34.2805  -50.3090  -54.6279 C.2       2 UNK         0.5016 
     61 O          34.8810  -49.8477  -53.6536 O.2       2 UNK        -0.5319 
     62 CA         34.1727  -49.4819  -55.9227 C.3       2 UNK         0.0286 
     63 CB         32.8980  -49.7847  -56.7354 C.3       2 UNK        -0.1963 
     64 N          34.1652  -48.0647  -55.5708 N.am      2 UNK        -0.4790 
     65 C          35.1752  -47.2078  -55.7360 C.2       1 UNK         0.5024 
     66 O          36.2186  -47.4858  -56.3299 O.2       1 UNK        -0.4888 
     67 H67        32.6726  -45.6080  -51.2367 H         1 UNK         0.0892 
     68 H68        33.4959  -47.1642  -51.1127 H         1 UNK         0.0892 
     69 H69        34.4344  -45.6676  -51.1456 H         1 UNK         0.0892 
     70 H70        35.4659  -45.4951  -53.1060 H         1 UNK         0.3107 
     71 H71        35.9848  -45.3333  -55.2072 H         1 UNK         0.0773 
     72 H72        34.0739  -45.1865  -57.0162 H         1 UNK         0.0680 
     73 H73        32.9743  -45.1366  -55.6761 H         1 UNK         0.0680 
     74 H74        33.7014  -41.5885  -54.1446 H         1 UNK         0.0650 
     75 H75        34.0666  -43.1482  -53.4600 H         1 UNK         0.0650 
     76 H76        32.1112  -43.1049  -52.0443 H         1 UNK         0.1397 
     77 H77        28.2275  -43.5380  -53.8057 H         1 UNK         0.1363 
     78 H78        31.6216  -42.7607  -56.2939 H         1 UNK         0.1355 
     79 H79        29.5197  -43.2657  -57.3174 H         1 UNK         0.0707 
     80 H80        28.2789  -44.0481  -56.3627 H         1 UNK         0.0707 
     81 H81        26.9455  -40.7997  -58.4258 H         1 UNK         0.1034 
     82 H82        27.6895  -42.3269  -58.7815 H         1 UNK         0.1034 
     83 H83        25.2225  -42.1288  -56.9808 H         1 UNK         0.0482 
     84 H84        23.6391  -43.8818  -58.9139 H         1 UNK         0.3460 
     85 H85        23.0220  -42.7058  -60.0481 H         1 UNK         0.3460 
     86 H86        25.5325  -44.2959  -56.7506 H         1 UNK         0.2989 
     87 H87        25.5813  -46.4221  -57.2521 H         1 UNK         0.0559 
     88 H88        24.7286  -47.0072  -59.5119 H         1 UNK         0.0848 
     89 H89        25.6812  -48.3157  -58.8265 H         1 UNK         0.0848 
     90 H90        26.3665  -47.2862  -60.0817 H         1 UNK         0.0848 
     91 H91        27.5871  -47.0225  -56.6318 H         1 UNK         0.3144 
     92 H92        30.6337  -47.8367  -58.2858 H         1 UNK         0.0727 
     93 H93        29.8972  -46.1954  -55.8027 H         1 UNK         0.0790 
     94 H94        30.9639  -45.6855  -57.1006 H         1 UNK         0.0790 
     95 H95        31.4227  -47.0309  -56.0684 H         1 UNK         0.0790 
     96 H96        29.5246  -48.7138  -55.8100 H         1 UNK         0.3215 
     97 H97        27.7543  -51.5469  -57.0704 H         1 UNK         0.0863 
     98 H98        29.1812  -52.6936  -55.3849 H         1 UNK         0.0808 
     99 H99        30.3391  -51.3679  -55.4305 H         1 UNK         0.0808 
    100 H100       30.0820  -52.3593  -56.8547 H         1 UNK         0.0808 
    101 H101       28.3079  -50.2013  -54.5114 H         1 UNK         0.3118 
    102 H102       25.2439  -48.4579  -54.4481 H         1 UNK         0.0546 
    103 H103       25.8756  -51.0060  -52.8597 H         1 UNK         0.0828 
    104 H104       24.4121  -50.7189  -53.7898 H         1 UNK         0.0828 
    105 H105       24.7509  -49.7351  -52.3768 H         1 UNK         0.0828 
    106 H106       27.2297  -48.9698  -52.4428 H         1 UNK         0.3005 
    107 H107       29.5364  -46.4610  -53.4149 H         1 UNK         0.1257 
    108 H108       27.5750  -46.4966  -51.0568 H         1 UNK         0.0775 
    109 H109       27.6508  -45.2161  -52.2318 H         1 UNK         0.0775 
    110 H110       28.4785  -43.1313  -51.3660 H         1 UNK         0.0840 
    111 H111       30.0543  -42.8549  -50.6829 H         1 UNK         0.0840 
    112 H112       29.5448  -48.0791  -51.1365 H         1 UNK         0.2987 
    113 H113       31.3021  -49.7265  -51.0940 H         1 UNK         0.0785 
    114 H114       28.9396  -50.5927  -50.7812 H         1 UNK         0.0798 
    115 H115       30.0850  -51.9180  -50.7618 H         1 UNK         0.0798 
    116 H116       29.1195  -51.6139  -52.2028 H         1 UNK         0.0798 
    117 H117       31.6483  -50.6755  -53.7319 H         1 UNK         0.3079 
    118 H118       34.5590  -52.4916  -53.0022 H         1 UNK         0.0794 
    119 H119       33.7252  -54.2224  -54.5852 H         1 UNK         0.0786 
    120 H120       32.0615  -53.6945  -54.3244 H         1 UNK         0.0786 
    121 H121       32.9743  -54.4256  -53.0120 H         1 UNK         0.0786 
    122 H122       33.2408  -51.8357  -55.4662 H         1 UNK         0.3032 
    123 H123       35.0443  -49.7212  -56.5358 H         1 UNK         0.1094 
    124 H124       32.0010  -49.6610  -56.1292 H         1 UNK         0.0794 
    125 H125       32.8101  -49.1137  -57.5900 H         1 UNK         0.0794 
    126 H126       32.9002  -50.7997  -57.1337 H         1 UNK         0.0794 
    127 H127       33.4015  -47.7479  -54.9736 H         1 UNK         0.3016 
@<TRIPOS>BOND
     1    1    2 1    
     2    1   67 1    
     3    1   68 1    
     4    1   69 1    
     5    2    3 2    
     6    2    4 am   BACKBONE|DICT|INTERRES
     7    4    5 1    
     8    4   70 1    
     9    5    6 1    
    10    5   65 1    
    11    5   71 1    
    12    6    7 1    
    13    6   72 1    
    14    6   73 1    
    15    7    8 1    
    16    8    9 1    
    17    8   74 1    
    18    8   75 1    
    19    9   10 ar   
    20    9   14 ar   
    21   10   11 ar   
    22   10   76 1    
    23   11   12 ar   
    24   11   48 1    
    25   12   13 ar   
    26   12   77 1    
    27   13   14 ar   
    28   13   15 1    
    29   14   78 1    
    30   15   16 1    
    31   15   79 1    
    32   15   80 1    
    33   16   17 1    
    34   17   18 1    
    35   17   81 1    
    36   17   82 1    
    37   18   19 1    
    38   18   22 1    
    39   18   83 1    
    40   19   20 am   BACKBONE|DICT|INTERRES
    41   19   21 2    
    42   20   84 1    
    43   20   85 1    
    44   22   23 am   BACKBONE|DICT|INTERRES
    45   22   86 1    
    46   23   24 2    
    47   23   25 1    
    48   25   26 1    
    49   25   27 1    
    50   25   87 1    
    51   26   88 1    
    52   26   89 1    
    53   26   90 1    
    54   27   28 am   BACKBONE|DICT|INTERRES
    55   27   91 1    
    56   28   29 2    
    57   28   30 1    
    58   30   31 1    
    59   30   32 1    
    60   30   92 1    
    61   31   93 1    
    62   31   94 1    
    63   31   95 1    
    64   32   33 am   BACKBONE|DICT|INTERRES
    65   32   96 1    
    66   33   34 2    
    67   33   35 1    
    68   35   36 1    
    69   35   37 1    
    70   35   97 1    
    71   36   98 1    
    72   36   99 1    
    73   36  100 1    
    74   37   38 am   BACKBONE|DICT|INTERRES
    75   37  101 1    
    76   38   39 2    
    77   38   40 1    
    78   40   41 1    
    79   40   42 1    
    80   40  102 1    
    81   41  103 1    
    82   41  104 1    
    83   41  105 1    
    84   42   43 am   BACKBONE|DICT|INTERRES
    85   42  106 1    
    86   43   44 2    
    87   43   45 1    
    88   45   46 1    
    89   45   49 1    
    90   45  107 1    
    91   46   47 1    
    92   46  108 1    
    93   46  109 1    
    94   47   48 1    
    95   48  110 1    
    96   48  111 1    
    97   49   50 am   BACKBONE|DICT|INTERRES
    98   49  112 1    
    99   50   51 2    
   100   50   52 1    
   101   52   53 1    
   102   52   54 1    
   103   52  113 1    
   104   53  114 1    
   105   53  115 1    
   106   53  116 1    
   107   54   55 am   BACKBONE|DICT|INTERRES
   108   54  117 1    
   109   55   56 2    
   110   55   57 1    
   111   57   58 1    
   112   57   59 1    
   113   57  118 1    
   114   58  119 1    
   115   58  120 1    
   116   58  121 1    
   117   59   60 am   BACKBONE|DICT|INTERRES
   118   59  122 1    
   119   60   61 2    
   120   60   62 1    
   121   62   63 1    
   122   62   64 1    
   123   62  123 1    
   124   63  124 1    
   125   63  125 1    
   126   63  126 1    
   127   64   65 am   BACKBONE|DICT|INTERRES
   128   64  127 1    
   129   65   66 2    
@<TRIPOS>SUBSTRUCTURE
     1 UNK         1 GROUP             0       ****    0 ROOT    
