@<TRIPOS>MOLECULE
3R134
127   129    1
SMALL
USER_CHARGES


@<TRIPOS>ATOM
      1 CA         36.4109  -47.1695  -51.6084 C.3       0 UNK        -0.1968 
      2 C          35.1251  -46.4183  -51.9179 C.2       0 UNK         0.4852 
      3 O          34.2764  -46.2788  -51.0351 O.2       0 UNK        -0.5359 
      4 N          34.9712  -45.9530  -53.1673 N.am      1 UNK        -0.4300 
      5 CA         33.8075  -45.2296  -53.7003 C.3       1 UNK         0.0863 
      6 C6         33.7437  -43.7495  -53.2335 C.3       11 UNK        -0.0953 
      7 S7         35.0138  -42.7726  -54.1070 S.3       11 UNK        -0.2369 
      8 C8         34.0373  -41.8636  -55.3562 C.3       11 UNK         0.0226 
      9 C9         33.0513  -42.7461  -56.1158 C.ar      11 UNK        -0.0699 
     10 C10        33.5053  -43.7333  -56.9976 C.ar      11 UNK        -0.0804 
     11 C11        32.5953  -44.5653  -57.6597 C.ar      11 UNK        -0.0871 
     12 C12        31.2240  -44.3742  -57.4681 C.ar      11 UNK        -0.1008 
     13 C13        30.7581  -43.3923  -56.5913 C.ar      11 UNK        -0.0735 
     14 C14        31.6762  -42.5808  -55.9197 C.ar      11 UNK        -0.0945 
     15 C15        29.2663  -43.2243  -56.3484 C.3       11 UNK         0.0169 
     16 S16        28.6643  -44.4878  -55.1874 S.3       11 UNK        -0.2669 
     17 C17        27.3443  -43.5918  -54.3015 C.3       11 UNK        -0.0850 
     18 CA         26.1020  -44.4887  -54.0290 C.3       10 UNK         0.0855 
     19 C          25.1397  -43.8821  -52.9602 C.2       10 UNK         0.5543 
     20 N          23.8385  -44.1377  -53.0245 N.am      10 UNK        -0.7343 
     21 O          25.5768  -43.1980  -52.0379 O.2       10 UNK        -0.5027 
     22 N          25.4396  -44.9446  -55.2662 N.am      10 UNK        -0.4495 
     23 C          24.8078  -44.1769  -56.1633 C.2       10 UNK         0.4903 
     24 O          24.7261  -42.9501  -56.0841 O.2       10 UNK        -0.4860 
     25 CA         24.1638  -44.9159  -57.3534 C.3       9 UNK         0.0227 
     26 CB         23.3054  -43.9872  -58.2332 C.3       9 UNK        -0.1964 
     27 N          25.1703  -45.5685  -58.1932 N.am      9 UNK        -0.4231 
     28 C          25.7928  -46.7180  -57.9053 C.2       9 UNK         0.5014 
     29 O          25.5729  -47.3784  -56.8857 O.2       9 UNK        -0.5270 
     30 CA         26.8646  -47.1656  -58.9096 C.3       8 UNK         0.0284 
     31 CB         28.1625  -46.3680  -58.6991 C.3       8 UNK        -0.1977 
     32 N          27.1492  -48.5958  -58.7788 N.am      8 UNK        -0.4342 
     33 C          26.4504  -49.5610  -59.3944 C.2       8 UNK         0.5039 
     34 O          25.5062  -49.3315  -60.1528 O.2       8 UNK        -0.5547 
     35 CA         26.8739  -51.0275  -59.1749 C.3       7 UNK         0.0281 
     36 CB         27.5533  -51.5823  -60.4386 C.3       7 UNK        -0.1963 
     37 N          27.7750  -51.2158  -58.0374 N.am      7 UNK        -0.4444 
     38 C          27.3874  -51.2956  -56.7581 C.2       7 UNK         0.5104 
     39 O          26.2099  -51.2946  -56.3983 O.2       7 UNK        -0.5100 
     40 CA         28.5011  -51.3867  -55.6948 C.3       6 UNK         0.0396 
     41 CB         28.6891  -52.8416  -55.2369 C.3       6 UNK        -0.1801 
     42 N          29.8035  -50.8433  -56.1063 N.am      6 UNK        -0.4747 
     43 C          30.0357  -49.5793  -56.4882 C.2       6 UNK         0.5012 
     44 O          29.1398  -48.7466  -56.6218 O.2       6 UNK        -0.5003 
     45 CA         31.5041  -49.1870  -56.7542 C.3       5 UNK         0.0782 
     46 C46        31.6288  -47.7301  -57.2772 C.3       11 UNK        -0.0868 
     47 S47        33.3463  -47.2398  -57.6587 S.3       11 UNK        -0.2515 
     48 C48        33.0885  -45.6811  -58.5708 C.3       11 UNK         0.0199 
     49 N          32.2980  -49.3847  -55.5417 N.am      5 UNK        -0.4607 
     50 C          32.8191  -50.5359  -55.1078 C.2       4 UNK         0.5031 
     51 O          32.6412  -51.6159  -55.6722 O.2       4 UNK        -0.5119 
     52 CA         33.6677  -50.4730  -53.8311 C.3       4 UNK         0.0263 
     53 CB         35.0367  -49.8371  -54.1289 C.3       4 UNK        -0.1967 
     54 N          33.0021  -49.7068  -52.7724 N.am      4 UNK        -0.4237 
     55 C          32.6251  -50.2104  -51.5875 C.2       3 UNK         0.4908 
     56 O          32.7483  -51.3979  -51.2841 O.2       3 UNK        -0.5102 
     57 CA         32.0395  -49.2469  -50.5356 C.3       3 UNK         0.0241 
     58 CB         33.0319  -49.0532  -49.3763 C.3       3 UNK        -0.1971 
     59 N          31.6812  -47.9346  -51.0784 N.am      3 UNK        -0.4139 
     60 C          30.5155  -47.6629  -51.6839 C.2       2 UNK         0.5016 
     61 O          29.5972  -48.4767  -51.7873 O.2       2 UNK        -0.5319 
     62 CA         30.3399  -46.2596  -52.3006 C.3       2 UNK         0.0286 
     63 CB         29.5012  -45.3639  -51.3753 C.3       2 UNK        -0.1963 
     64 N          31.5929  -45.5686  -52.6317 N.am      2 UNK        -0.4790 
     65 C          32.5187  -46.0403  -53.4778 C.2       1 UNK         0.5024 
     66 O          32.4191  -47.1290  -54.0387 O.2       1 UNK        -0.4888 
     67 H67        36.9684  -46.6510  -50.8289 H         1 UNK         0.0892 
     68 H68        36.1809  -48.1734  -51.2526 H         1 UNK         0.0892 
     69 H69        37.0534  -47.2593  -52.4841 H         1 UNK         0.0892 
     70 H70        35.7064  -46.1171  -53.8402 H         1 UNK         0.3107 
     71 H71        33.9330  -45.2385  -54.7828 H         1 UNK         0.0773 
     72 H72        33.9096  -43.6684  -52.1581 H         1 UNK         0.0680 
     73 H73        32.7685  -43.3005  -53.4246 H         1 UNK         0.0680 
     74 H74        34.7217  -41.3973  -56.0660 H         1 UNK         0.0650 
     75 H75        33.5143  -41.0461  -54.8574 H         1 UNK         0.0650 
     76 H76        34.5680  -43.8741  -57.1411 H         1 UNK         0.1397 
     77 H77        30.5168  -45.0115  -57.9783 H         1 UNK         0.1363 
     78 H78        31.3182  -41.8271  -55.2317 H         1 UNK         0.1355 
     79 H79        29.0664  -42.2263  -55.9553 H         1 UNK         0.0707 
     80 H80        28.7166  -43.3039  -57.2873 H         1 UNK         0.0707 
     81 H81        27.0530  -42.6973  -54.8532 H         1 UNK         0.1034 
     82 H82        27.7805  -43.2345  -53.3676 H         1 UNK         0.1034 
     83 H83        26.4697  -45.4001  -53.5559 H         1 UNK         0.0482 
     84 H84        23.2235  -43.7526  -52.3249 H         1 UNK         0.3460 
     85 H85        23.4673  -44.7103  -53.7652 H         1 UNK         0.3460 
     86 H86        25.4878  -45.9404  -55.4582 H         1 UNK         0.2989 
     87 H87        23.5018  -45.6805  -56.9410 H         1 UNK         0.0559 
     88 H88        22.5253  -43.5030  -57.6440 H         1 UNK         0.0848 
     89 H89        22.8083  -44.5416  -59.0295 H         1 UNK         0.0848 
     90 H90        23.9014  -43.1985  -58.6943 H         1 UNK         0.0848 
     91 H91        25.4415  -45.0720  -59.0301 H         1 UNK         0.3144 
     92 H92        26.5012  -46.9651  -59.9200 H         1 UNK         0.0727 
     93 H93        28.9540  -46.7120  -59.3648 H         1 UNK         0.0790 
     94 H94        28.5235  -46.4492  -57.6732 H         1 UNK         0.0790 
     95 H95        28.0090  -45.3075  -58.9013 H         1 UNK         0.0790 
     96 H96        27.8420  -48.8460  -58.0788 H         1 UNK         0.3215 
     97 H97        25.9626  -51.6039  -58.9997 H         1 UNK         0.0863 
     98 H98        27.8006  -52.6382  -60.3261 H         1 UNK         0.0808 
     99 H99        28.4721  -51.0435  -60.6739 H         1 UNK         0.0808 
    100 H100       26.8958  -51.4972  -61.3050 H         1 UNK         0.0808 
    101 H101       28.7649  -51.2385  -58.2336 H         1 UNK         0.3118 
    102 H102       28.1679  -50.8015  -54.8352 H         1 UNK         0.0546 
    103 H103       27.7462  -53.2686  -54.8923 H         1 UNK         0.0828 
    104 H104       29.3945  -52.9097  -54.4085 H         1 UNK         0.0828 
    105 H105       29.0573  -53.4742  -56.0455 H         1 UNK         0.0828 
    106 H106       30.6096  -51.4514  -56.0011 H         1 UNK         0.3005 
    107 H107       31.8793  -49.8549  -57.5328 H         1 UNK         0.1257 
    108 H108       31.0326  -47.6032  -58.1823 H         1 UNK         0.0775 
    109 H109       31.2290  -47.0296  -56.5411 H         1 UNK         0.0775 
    110 H110       34.0302  -45.3876  -59.0372 H         1 UNK         0.0840 
    111 H111       32.3854  -45.8456  -59.3889 H         1 UNK         0.0840 
    112 H112       32.4501  -48.5357  -54.9989 H         1 UNK         0.2987 
    113 H113       33.8416  -51.5024  -53.5106 H         1 UNK         0.0785 
    114 H114       35.6809  -49.8596  -53.2501 H         1 UNK         0.0798 
    115 H115       34.9418  -48.7986  -54.4489 H         1 UNK         0.0798 
    116 H116       35.5540  -50.3774  -54.9230 H         1 UNK         0.0798 
    117 H117       32.8032  -48.7330  -52.9766 H         1 UNK         0.3079 
    118 H118       31.1423  -49.7193  -50.1298 H         1 UNK         0.0794 
    119 H119       33.2641  -50.0054  -48.8972 H         1 UNK         0.0786 
    120 H120       32.6225  -48.3970  -48.6081 H         1 UNK         0.0786 
    121 H121       33.9743  -48.6237  -49.7171 H         1 UNK         0.0786 
    122 H122       32.3970  -47.2144  -51.0415 H         1 UNK         0.3032 
    123 H123       29.7914  -46.3995  -53.2344 H         1 UNK         0.1094 
    124 H124       29.3020  -44.3955  -51.8337 H         1 UNK         0.0794 
    125 H125       28.5349  -45.8222  -51.1596 H         1 UNK         0.0794 
    126 H126       30.0009  -45.1891  -50.4218 H         1 UNK         0.0794 
    127 H127       31.7658  -44.6905  -52.1647 H         1 UNK         0.3016 
@<TRIPOS>BOND
     1    1    2 1    
     2    1   67 1    
     3    1   68 1    
     4    1   69 1    
     5    2    3 2    
     6    2    4 am   BACKBONE|DICT|INTERRES
     7    4    5 1    
     8    4   70 1    
     9    5    6 1    
    10    5   65 1    
    11    5   71 1    
    12    6    7 1    
    13    6   72 1    
    14    6   73 1    
    15    7    8 1    
    16    8    9 1    
    17    8   74 1    
    18    8   75 1    
    19    9   10 ar   
    20    9   14 ar   
    21   10   11 ar   
    22   10   76 1    
    23   11   12 ar   
    24   11   48 1    
    25   12   13 ar   
    26   12   77 1    
    27   13   14 ar   
    28   13   15 1    
    29   14   78 1    
    30   15   16 1    
    31   15   79 1    
    32   15   80 1    
    33   16   17 1    
    34   17   18 1    
    35   17   81 1    
    36   17   82 1    
    37   18   19 1    
    38   18   22 1    
    39   18   83 1    
    40   19   20 am   BACKBONE|DICT|INTERRES
    41   19   21 2    
    42   20   84 1    
    43   20   85 1    
    44   22   23 am   BACKBONE|DICT|INTERRES
    45   22   86 1    
    46   23   24 2    
    47   23   25 1    
    48   25   26 1    
    49   25   27 1    
    50   25   87 1    
    51   26   88 1    
    52   26   89 1    
    53   26   90 1    
    54   27   28 am   BACKBONE|DICT|INTERRES
    55   27   91 1    
    56   28   29 2    
    57   28   30 1    
    58   30   31 1    
    59   30   32 1    
    60   30   92 1    
    61   31   93 1    
    62   31   94 1    
    63   31   95 1    
    64   32   33 am   BACKBONE|DICT|INTERRES
    65   32   96 1    
    66   33   34 2    
    67   33   35 1    
    68   35   36 1    
    69   35   37 1    
    70   35   97 1    
    71   36   98 1    
    72   36   99 1    
    73   36  100 1    
    74   37   38 am   BACKBONE|DICT|INTERRES
    75   37  101 1    
    76   38   39 2    
    77   38   40 1    
    78   40   41 1    
    79   40   42 1    
    80   40  102 1    
    81   41  103 1    
    82   41  104 1    
    83   41  105 1    
    84   42   43 am   BACKBONE|DICT|INTERRES
    85   42  106 1    
    86   43   44 2    
    87   43   45 1    
    88   45   46 1    
    89   45   49 1    
    90   45  107 1    
    91   46   47 1    
    92   46  108 1    
    93   46  109 1    
    94   47   48 1    
    95   48  110 1    
    96   48  111 1    
    97   49   50 am   BACKBONE|DICT|INTERRES
    98   49  112 1    
    99   50   51 2    
   100   50   52 1    
   101   52   53 1    
   102   52   54 1    
   103   52  113 1    
   104   53  114 1    
   105   53  115 1    
   106   53  116 1    
   107   54   55 am   BACKBONE|DICT|INTERRES
   108   54  117 1    
   109   55   56 2    
   110   55   57 1    
   111   57   58 1    
   112   57   59 1    
   113   57  118 1    
   114   58  119 1    
   115   58  120 1    
   116   58  121 1    
   117   59   60 am   BACKBONE|DICT|INTERRES
   118   59  122 1    
   119   60   61 2    
   120   60   62 1    
   121   62   63 1    
   122   62   64 1    
   123   62  123 1    
   124   63  124 1    
   125   63  125 1    
   126   63  126 1    
   127   64   65 am   BACKBONE|DICT|INTERRES
   128   64  127 1    
   129   65   66 2    
@<TRIPOS>SUBSTRUCTURE
     1 UNK         1 GROUP             0       ****    0 ROOT    
