@<TRIPOS>MOLECULE
3R134
127   129    1
SMALL
USER_CHARGES


@<TRIPOS>ATOM
      1 CA         29.8836  -45.8400  -54.7723 C.3       0 UNK        -0.1968 
      2 C          31.0571  -46.0261  -53.8276 C.2       0 UNK         0.4852 
      3 O          32.0264  -46.6980  -54.1827 O.2       0 UNK        -0.5359 
      4 N          30.9597  -45.4370  -52.6281 N.am      1 UNK        -0.4300 
      5 CA         32.0051  -45.3741  -51.5992 C.3       1 UNK         0.0863 
      6 C6         33.1936  -44.4637  -52.0233 C.3       11 UNK        -0.0953 
      7 S7         32.6468  -42.7555  -52.3624 S.3       11 UNK        -0.2369 
      8 C8         33.5876  -42.3399  -53.8631 C.3       11 UNK         0.0226 
      9 C9         32.8899  -42.7767  -55.1452 C.ar      11 UNK        -0.0699 
     10 C10        33.3951  -43.8376  -55.9027 C.ar      11 UNK        -0.0804 
     11 C11        32.8293  -44.1594  -57.1406 C.ar      11 UNK        -0.0871 
     12 C12        31.7231  -43.4357  -57.6007 C.ar      11 UNK        -0.1008 
     13 C13        31.2032  -42.3717  -56.8540 C.ar      11 UNK        -0.0735 
     14 C14        31.7946  -42.0513  -55.6255 C.ar      11 UNK        -0.0945 
     15 C15        30.0980  -41.4991  -57.4504 C.3       11 UNK         0.0169 
     16 S16        28.8496  -40.9212  -56.2464 S.3       11 UNK        -0.2669 
     17 C17        27.4622  -42.0796  -56.5092 C.3       11 UNK        -0.0850 
     18 CA         27.4585  -43.2610  -55.4982 C.3       10 UNK         0.0855 
     19 C          26.7822  -42.9318  -54.1286 C.2       10 UNK         0.5543 
     20 N          26.1208  -43.8797  -53.4723 N.am      10 UNK        -0.7343 
     21 O          26.8788  -41.8128  -53.6323 O.2       10 UNK        -0.5027 
     22 N          27.0018  -44.5175  -56.1157 N.am      10 UNK        -0.4495 
     23 C          25.7733  -44.7552  -56.5951 C.2       10 UNK         0.4903 
     24 O          24.8861  -43.9056  -56.6762 O.2       10 UNK        -0.4860 
     25 CA         25.4762  -46.1957  -57.0456 C.3       9 UNK         0.0227 
     26 CB         25.6974  -46.3284  -58.5591 C.3       9 UNK        -0.1964 
     27 N          26.2668  -47.2149  -56.3433 N.am      9 UNK        -0.4231 
     28 C          26.1898  -47.4844  -55.0316 C.2       9 UNK         0.5014 
     29 O          25.4689  -46.8580  -54.2518 O.2       9 UNK        -0.5270 
     30 CA         27.0990  -48.6131  -54.5035 C.3       8 UNK         0.0284 
     31 CB         26.7788  -49.0233  -53.0509 C.3       8 UNK        -0.1977 
     32 N          27.1423  -49.7895  -55.3801 N.am      8 UNK        -0.4342 
     33 C          26.1270  -50.5852  -55.7440 C.2       8 UNK         0.5039 
     34 O          24.9598  -50.4408  -55.3754 O.2       8 UNK        -0.5547 
     35 CA         26.5118  -51.7427  -56.6857 C.3       7 UNK         0.0281 
     36 CB         25.3020  -52.5739  -57.1665 C.3       7 UNK        -0.1963 
     37 N          27.3324  -51.2783  -57.8127 N.am      7 UNK        -0.4444 
     38 C          26.9645  -50.4387  -58.7929 C.2       7 UNK         0.5104 
     39 O          25.8256  -49.9911  -58.9300 O.2       7 UNK        -0.5100 
     40 CA         28.0819  -50.0203  -59.7727 C.3       6 UNK         0.0396 
     41 CB         27.6544  -48.8955  -60.7379 C.3       6 UNK        -0.1801 
     42 N          29.3427  -49.6665  -59.1048 N.am      6 UNK        -0.4747 
     43 C          29.5166  -48.7503  -58.1387 C.2       6 UNK         0.5012 
     44 O          28.6112  -48.0652  -57.6579 O.2       6 UNK        -0.5003 
     45 CA         30.9505  -48.5824  -57.5979 C.3       5 UNK         0.0782 
     46 C46        31.4698  -47.1671  -57.9509 C.3       11 UNK        -0.0868 
     47 S47        33.1973  -46.9134  -57.4424 S.3       11 UNK        -0.2515 
     48 C48        33.4837  -45.2155  -58.0247 C.3       11 UNK         0.0199 
     49 N          31.0543  -48.8608  -56.1576 N.am      5 UNK        -0.4607 
     50 C          30.5501  -49.9104  -55.4915 C.2       4 UNK         0.5031 
     51 O          29.8496  -50.7848  -56.0063 O.2       4 UNK        -0.5119 
     52 CA         30.8623  -49.9739  -53.9845 C.3       4 UNK         0.0263 
     53 CB         30.4871  -51.3265  -53.3440 C.3       4 UNK        -0.1967 
     54 N          32.2502  -49.6132  -53.6807 N.am      4 UNK        -0.4237 
     55 C          33.3707  -50.2154  -54.1111 C.2       3 UNK         0.4908 
     56 O          33.3871  -51.2281  -54.8117 O.2       3 UNK        -0.5102 
     57 CA         34.7106  -49.5765  -53.6997 C.3       3 UNK         0.0241 
     58 CB         35.2695  -48.7158  -54.8436 C.3       3 UNK        -0.1971 
     59 N          34.6093  -48.7498  -52.4959 N.am      3 UNK        -0.4139 
     60 C          34.4681  -49.2216  -51.2494 C.2       2 UNK         0.5016 
     61 O          34.4968  -50.4185  -50.9612 O.2       2 UNK        -0.5319 
     62 CA         34.2430  -48.1820  -50.1352 C.3       2 UNK         0.0286 
     63 CB         35.5598  -47.8899  -49.3976 C.3       2 UNK        -0.1963 
     64 N          33.6696  -46.9182  -50.6164 N.am      2 UNK        -0.4790 
     65 C          32.4285  -46.7804  -51.1070 C.2       1 UNK         0.5024 
     66 O          31.6279  -47.7171  -51.1668 O.2       1 UNK        -0.4888 
     67 H67        28.9816  -45.5588  -54.2303 H         1 UNK         0.0892 
     68 H68        30.1272  -45.0622  -55.4952 H         1 UNK         0.0892 
     69 H69        29.6759  -46.7538  -55.3214 H         1 UNK         0.0892 
     70 H70        30.1158  -44.9336  -52.3971 H         1 UNK         0.3107 
     71 H71        31.5341  -44.9103  -50.7311 H         1 UNK         0.0773 
     72 H72        33.6969  -44.8743  -52.9005 H         1 UNK         0.0680 
     73 H73        33.9449  -44.3917  -51.2360 H         1 UNK         0.0680 
     74 H74        33.7247  -41.2580  -53.8910 H         1 UNK         0.0650 
     75 H75        34.5903  -42.7650  -53.7973 H         1 UNK         0.0650 
     76 H76        34.2582  -44.3872  -55.5524 H         1 UNK         0.1397 
     77 H77        31.3014  -43.6657  -58.5698 H         1 UNK         0.1363 
     78 H78        31.4302  -41.2074  -55.0561 H         1 UNK         0.1355 
     79 H79        30.5737  -40.6186  -57.8841 H         1 UNK         0.0707 
     80 H80        29.6079  -42.0098  -58.2801 H         1 UNK         0.0707 
     81 H81        27.5133  -42.4515  -57.5331 H         1 UNK         0.1034 
     82 H82        26.5230  -41.5256  -56.4579 H         1 UNK         0.1034 
     83 H83        28.4976  -43.4517  -55.2374 H         1 UNK         0.0482 
     84 H84        25.9961  -44.8047  -53.8641 H         1 UNK         0.3460 
     85 H85        25.6976  -43.6537  -52.5863 H         1 UNK         0.3460 
     86 H86        27.6586  -45.2825  -56.1126 H         1 UNK         0.2989 
     87 H87        24.4234  -46.3949  -56.8355 H         1 UNK         0.0559 
     88 H88        25.0977  -45.6013  -59.1084 H         1 UNK         0.0848 
     89 H89        25.4098  -47.3171  -58.9159 H         1 UNK         0.0848 
     90 H90        26.7410  -46.1600  -58.8272 H         1 UNK         0.0848 
     91 H91        26.9522  -47.7225  -56.9005 H         1 UNK         0.3144 
     92 H92        28.1082  -48.2060  -54.5025 H         1 UNK         0.0727 
     93 H93        27.4634  -49.7932  -52.6952 H         1 UNK         0.0790 
     94 H94        25.7625  -49.4066  -52.9545 H         1 UNK         0.0790 
     95 H95        26.8707  -48.1726  -52.3744 H         1 UNK         0.0790 
     96 H96        28.0546  -50.0216  -55.7629 H         1 UNK         0.3215 
     97 H97        27.1491  -52.4077  -56.1002 H         1 UNK         0.0863 
     98 H98        25.6139  -53.3875  -57.8212 H         1 UNK         0.0808 
     99 H99        24.5763  -51.9660  -57.7073 H         1 UNK         0.0808 
    100 H100       24.7791  -53.0211  -56.3204 H         1 UNK         0.0808 
    101 H101       28.3102  -51.5373  -57.7689 H         1 UNK         0.3118 
    102 H102       28.2915  -50.9038  -60.3776 H         1 UNK         0.0546 
    103 H103       27.4511  -47.9656  -60.2098 H         1 UNK         0.0828 
    104 H104       26.7502  -49.1661  -61.2847 H         1 UNK         0.0828 
    105 H105       28.4290  -48.6945  -61.4777 H         1 UNK         0.0828 
    106 H106       30.1487  -50.1956  -59.4094 H         1 UNK         0.3005 
    107 H107       31.5927  -49.3116  -58.0955 H         1 UNK         0.1257 
    108 H108       31.4083  -46.9949  -59.0275 H         1 UNK         0.0775 
    109 H109       30.8548  -46.3978  -57.4817 H         1 UNK         0.0775 
    110 H110       34.5597  -45.0372  -58.0481 H         1 UNK         0.0840 
    111 H111       33.1450  -45.1239  -59.0578 H         1 UNK         0.0840 
    112 H112       31.6037  -48.1877  -55.6320 H         1 UNK         0.2987 
    113 H113       30.2451  -49.2078  -53.5133 H         1 UNK         0.0785 
    114 H114       30.7025  -51.3308  -52.2755 H         1 UNK         0.0798 
    115 H115       31.0297  -52.1552  -53.7997 H         1 UNK         0.0798 
    116 H116       29.4222  -51.5323  -53.4602 H         1 UNK         0.0798 
    117 H117       32.3557  -48.7543  -53.1530 H         1 UNK         0.3079 
    118 H118       35.4142  -50.3886  -53.5044 H         1 UNK         0.0794 
    119 H119       35.3263  -49.2833  -55.7736 H         1 UNK         0.0786 
    120 H120       36.2754  -48.3611  -54.6185 H         1 UNK         0.0786 
    121 H121       34.6412  -47.8442  -55.0305 H         1 UNK         0.0786 
    122 H122       34.5710  -47.7502  -52.6331 H         1 UNK         0.3032 
    123 H123       33.5407  -48.6224  -49.4233 H         1 UNK         0.1094 
    124 H124       36.2999  -47.4325  -50.0556 H         1 UNK         0.0794 
    125 H125       35.4017  -47.2212  -48.5513 H         1 UNK         0.0794 
    126 H126       35.9981  -48.8083  -49.0037 H         1 UNK         0.0794 
    127 H127       34.2688  -46.1060  -50.5754 H         1 UNK         0.3016 
@<TRIPOS>BOND
     1    1    2 1    
     2    1   67 1    
     3    1   68 1    
     4    1   69 1    
     5    2    3 2    
     6    2    4 am   BACKBONE|DICT|INTERRES
     7    4    5 1    
     8    4   70 1    
     9    5    6 1    
    10    5   65 1    
    11    5   71 1    
    12    6    7 1    
    13    6   72 1    
    14    6   73 1    
    15    7    8 1    
    16    8    9 1    
    17    8   74 1    
    18    8   75 1    
    19    9   10 ar   
    20    9   14 ar   
    21   10   11 ar   
    22   10   76 1    
    23   11   12 ar   
    24   11   48 1    
    25   12   13 ar   
    26   12   77 1    
    27   13   14 ar   
    28   13   15 1    
    29   14   78 1    
    30   15   16 1    
    31   15   79 1    
    32   15   80 1    
    33   16   17 1    
    34   17   18 1    
    35   17   81 1    
    36   17   82 1    
    37   18   19 1    
    38   18   22 1    
    39   18   83 1    
    40   19   20 am   BACKBONE|DICT|INTERRES
    41   19   21 2    
    42   20   84 1    
    43   20   85 1    
    44   22   23 am   BACKBONE|DICT|INTERRES
    45   22   86 1    
    46   23   24 2    
    47   23   25 1    
    48   25   26 1    
    49   25   27 1    
    50   25   87 1    
    51   26   88 1    
    52   26   89 1    
    53   26   90 1    
    54   27   28 am   BACKBONE|DICT|INTERRES
    55   27   91 1    
    56   28   29 2    
    57   28   30 1    
    58   30   31 1    
    59   30   32 1    
    60   30   92 1    
    61   31   93 1    
    62   31   94 1    
    63   31   95 1    
    64   32   33 am   BACKBONE|DICT|INTERRES
    65   32   96 1    
    66   33   34 2    
    67   33   35 1    
    68   35   36 1    
    69   35   37 1    
    70   35   97 1    
    71   36   98 1    
    72   36   99 1    
    73   36  100 1    
    74   37   38 am   BACKBONE|DICT|INTERRES
    75   37  101 1    
    76   38   39 2    
    77   38   40 1    
    78   40   41 1    
    79   40   42 1    
    80   40  102 1    
    81   41  103 1    
    82   41  104 1    
    83   41  105 1    
    84   42   43 am   BACKBONE|DICT|INTERRES
    85   42  106 1    
    86   43   44 2    
    87   43   45 1    
    88   45   46 1    
    89   45   49 1    
    90   45  107 1    
    91   46   47 1    
    92   46  108 1    
    93   46  109 1    
    94   47   48 1    
    95   48  110 1    
    96   48  111 1    
    97   49   50 am   BACKBONE|DICT|INTERRES
    98   49  112 1    
    99   50   51 2    
   100   50   52 1    
   101   52   53 1    
   102   52   54 1    
   103   52  113 1    
   104   53  114 1    
   105   53  115 1    
   106   53  116 1    
   107   54   55 am   BACKBONE|DICT|INTERRES
   108   54  117 1    
   109   55   56 2    
   110   55   57 1    
   111   57   58 1    
   112   57   59 1    
   113   57  118 1    
   114   58  119 1    
   115   58  120 1    
   116   58  121 1    
   117   59   60 am   BACKBONE|DICT|INTERRES
   118   59  122 1    
   119   60   61 2    
   120   60   62 1    
   121   62   63 1    
   122   62   64 1    
   123   62  123 1    
   124   63  124 1    
   125   63  125 1    
   126   63  126 1    
   127   64   65 am   BACKBONE|DICT|INTERRES
   128   64  127 1    
   129   65   66 2    
@<TRIPOS>SUBSTRUCTURE
     1 UNK         1 GROUP             0       ****    0 ROOT    
