@<TRIPOS>MOLECULE
3R134
127   129    1
SMALL
USER_CHARGES


@<TRIPOS>ATOM
      1 CA         31.9878  -46.5529  -58.6001 C.3       0 UNK        -0.1968 
      2 C          32.0876  -46.1606  -57.1336 C.2       0 UNK         0.4852 
      3 O          31.0679  -46.1144  -56.4482 O.2       0 UNK        -0.5359 
      4 N          33.3074  -45.8760  -56.6612 N.am      1 UNK        -0.4300 
      5 CA         33.6052  -45.5084  -55.2764 C.3       1 UNK         0.0863 
      6 C6         34.6204  -44.3387  -55.1859 C.3       11 UNK        -0.0953 
      7 S7         33.9191  -42.7689  -55.7888 S.3       11 UNK        -0.2369 
      8 C8         33.6065  -41.8853  -54.2273 C.3       11 UNK         0.0226 
      9 C9         32.3501  -42.3876  -53.5304 C.ar      11 UNK        -0.0699 
     10 C10        32.4273  -43.3598  -52.5267 C.ar      11 UNK        -0.0804 
     11 C11        31.2689  -43.8034  -51.8794 C.ar      11 UNK        -0.0871 
     12 C12        30.0333  -43.2547  -52.2293 C.ar      11 UNK        -0.1008 
     13 C13        29.9424  -42.2967  -53.2408 C.ar      11 UNK        -0.0735 
     14 C14        31.1040  -41.8633  -53.8857 C.ar      11 UNK        -0.0945 
     15 C15        28.5827  -41.7486  -53.6453 C.3       11 UNK         0.0169 
     16 S16        27.5625  -43.0332  -54.4335 S.3       11 UNK        -0.2669 
     17 C17        28.5717  -43.4428  -55.9011 C.3       11 UNK        -0.0850 
     18 CA         27.6992  -43.6596  -57.1622 C.3       10 UNK         0.0855 
     19 C          28.5585  -43.7273  -58.4618 C.2       10 UNK         0.5543 
     20 N          28.3577  -44.6829  -59.3617 N.am      10 UNK        -0.7343 
     21 O          29.4165  -42.8742  -58.6741 O.2       10 UNK        -0.5027 
     22 N          26.7862  -44.7970  -56.9779 N.am      10 UNK        -0.4495 
     23 C          25.5930  -44.9326  -57.5646 C.2       10 UNK         0.4903 
     24 O          25.0714  -44.0710  -58.2749 O.2       10 UNK        -0.4860 
     25 CA         24.8983  -46.2900  -57.3439 C.3       9 UNK         0.0227 
     26 CB         23.5883  -46.4388  -58.1453 C.3       9 UNK        -0.1964 
     27 N          25.8010  -47.4161  -57.6151 N.am      9 UNK        -0.4231 
     28 C          26.4787  -47.6669  -58.7474 C.2       9 UNK         0.5014 
     29 O          26.3975  -46.9745  -59.7627 O.2       9 UNK        -0.5270 
     30 CA         27.4509  -48.8595  -58.7477 C.3       8 UNK         0.0284 
     31 CB         28.9014  -48.3611  -58.8574 C.3       8 UNK        -0.1977 
     32 N          27.3312  -49.6888  -57.5491 N.am      8 UNK        -0.4342 
     33 C          26.4156  -50.6466  -57.3634 C.2       8 UNK         0.5039 
     34 O          25.6002  -50.9964  -58.2173 O.2       8 UNK        -0.5547 
     35 CA         26.3866  -51.2957  -55.9711 C.3       7 UNK         0.0281 
     36 CB         27.4960  -52.3520  -55.8357 C.3       7 UNK        -0.1963 
     37 N          26.5076  -50.3088  -54.8929 N.am      7 UNK        -0.4444 
     38 C          25.5606  -49.4192  -54.5634 C.2       7 UNK         0.5104 
     39 O          24.4823  -49.3220  -55.1480 O.2       7 UNK        -0.5100 
     40 CA         25.8555  -48.4758  -53.3857 C.3       6 UNK         0.0396 
     41 CB         25.2599  -49.0430  -52.0874 C.3       6 UNK        -0.1801 
     42 N          27.2847  -48.2238  -53.1887 N.am      6 UNK        -0.4747 
     43 C          28.0009  -47.3410  -53.9001 C.2       6 UNK         0.5012 
     44 O          27.5387  -46.6783  -54.8316 O.2       6 UNK        -0.5003 
     45 CA         29.4912  -47.2067  -53.5135 C.3       5 UNK         0.0782 
     46 C46        29.6328  -46.7980  -52.0193 C.3       11 UNK        -0.0868 
     47 S47        31.3633  -46.5500  -51.4859 S.3       11 UNK        -0.2515 
     48 C48        31.3495  -44.8656  -50.7939 C.3       11 UNK         0.0199 
     49 N          30.3152  -48.3875  -53.8283 N.am      5 UNK        -0.4607 
     50 C          30.2275  -49.2325  -54.8686 C.2       4 UNK         0.5031 
     51 O          29.2977  -49.2517  -55.6719 O.2       4 UNK        -0.5119 
     52 CA         31.3528  -50.2611  -55.0634 C.3       4 UNK         0.0263 
     53 CB         32.0166  -50.0883  -56.4411 C.3       4 UNK        -0.1967 
     54 N          32.3900  -50.1840  -54.0332 N.am      4 UNK        -0.4237 
     55 C          32.8669  -51.2290  -53.3434 C.2       3 UNK         0.4908 
     56 O          32.4157  -52.3714  -53.4463 O.2       3 UNK        -0.5102 
     57 CA         34.0325  -50.9694  -52.3633 C.3       3 UNK         0.0241 
     58 CB         34.9933  -52.1740  -52.2597 C.3       3 UNK        -0.1971 
     59 N          34.7809  -49.7301  -52.6158 N.am      3 UNK        -0.4139 
     60 C          35.4903  -49.4030  -53.7077 C.2       2 UNK         0.5016 
     61 O          35.6334  -50.1259  -54.6957 O.2       2 UNK        -0.5319 
     62 CA         36.1218  -47.9976  -53.6937 C.3       2 UNK         0.0286 
     63 CB         37.5874  -48.0467  -54.1606 C.3       2 UNK        -0.1963 
     64 N          35.4029  -46.9952  -54.4934 N.am      2 UNK        -0.4790 
     65 C          34.0796  -46.7634  -54.5213 C.2       1 UNK         0.5024 
     66 O          33.2458  -47.4777  -53.9681 O.2       1 UNK        -0.4888 
     67 H67        31.1749  -46.0069  -59.0785 H         1 UNK         0.0892 
     68 H68        32.9064  -46.3349  -59.1443 H         1 UNK         0.0892 
     69 H69        31.7825  -47.6190  -58.6887 H         1 UNK         0.0892 
     70 H70        34.1048  -45.9471  -57.2768 H         1 UNK         0.3107 
     71 H71        32.6891  -45.1839  -54.7768 H         1 UNK         0.0773 
     72 H72        34.9627  -44.2000  -54.1588 H         1 UNK         0.0680 
     73 H73        35.5137  -44.5477  -55.7770 H         1 UNK         0.0680 
     74 H74        34.4734  -41.9668  -53.5699 H         1 UNK         0.0650 
     75 H75        33.4983  -40.8223  -54.4479 H         1 UNK         0.0650 
     76 H76        33.3867  -43.7749  -52.2506 H         1 UNK         0.1397 
     77 H77        29.1324  -43.5837  -51.7301 H         1 UNK         0.1363 
     78 H78        31.0408  -41.1205  -54.6692 H         1 UNK         0.1355 
     79 H79        28.0653  -41.3761  -52.7601 H         1 UNK         0.0707 
     80 H80        28.6850  -40.8999  -54.3236 H         1 UNK         0.0707 
     81 H81        29.2877  -42.6369  -56.0699 H         1 UNK         0.1034 
     82 H82        29.1657  -44.3326  -55.6842 H         1 UNK         0.1034 
     83 H83        27.0894  -42.7621  -57.2815 H         1 UNK         0.0482 
     84 H84        27.6172  -45.3638  -59.2506 H         1 UNK         0.3460 
     85 H85        28.9165  -44.6867  -60.1992 H         1 UNK         0.3460 
     86 H86        27.1233  -45.5400  -56.3713 H         1 UNK         0.2989 
     87 H87        24.6485  -46.3430  -56.2831 H         1 UNK         0.0559 
     88 H88        22.8772  -45.6558  -57.8796 H         1 UNK         0.0848 
     89 H89        23.1075  -47.3957  -57.9420 H         1 UNK         0.0848 
     90 H90        23.7602  -46.3711  -59.2201 H         1 UNK         0.0848 
     91 H91        25.9631  -48.0399  -56.8372 H         1 UNK         0.3144 
     92 H92        27.2283  -49.4677  -59.6269 H         1 UNK         0.0727 
     93 H93        29.1716  -47.7253  -58.0123 H         1 UNK         0.0790 
     94 H94        29.0498  -47.7763  -59.7660 H         1 UNK         0.0790 
     95 H95        29.6049  -49.1928  -58.8894 H         1 UNK         0.0790 
     96 H96        27.9964  -49.4932  -56.7970 H         1 UNK         0.3215 
     97 H97        25.4236  -51.7993  -55.8603 H         1 UNK         0.0863 
     98 H98        27.4431  -52.8627  -54.8741 H         1 UNK         0.0808 
     99 H99        28.4901  -51.9137  -55.9294 H         1 UNK         0.0808 
    100 H100       27.4031  -53.1136  -56.6112 H         1 UNK         0.0808 
    101 H101       27.3895  -50.2695  -54.4029 H         1 UNK         0.3118 
    102 H102       25.3593  -47.5251  -53.5942 H         1 UNK         0.0546 
    103 H103       25.7160  -49.9951  -51.8131 H         1 UNK         0.0828 
    104 H104       24.1877  -49.2147  -52.1930 H         1 UNK         0.0828 
    105 H105       25.3941  -48.3528  -51.2543 H         1 UNK         0.0828 
    106 H106       27.7459  -48.7473  -52.4584 H         1 UNK         0.3005 
    107 H107       29.8922  -46.3904  -54.1176 H         1 UNK         0.1257 
    108 H108       29.0566  -45.8946  -51.8188 H         1 UNK         0.0775 
    109 H109       29.2133  -47.5661  -51.3677 H         1 UNK         0.0775 
    110 H110       30.5222  -44.7649  -50.0895 H         1 UNK         0.0840 
    111 H111       32.2600  -44.7206  -50.2105 H         1 UNK         0.0840 
    112 H112       31.1421  -48.4585  -53.2534 H         1 UNK         0.2987 
    113 H113       30.8684  -51.2392  -55.0403 H         1 UNK         0.0785 
    114 H114       31.2833  -50.1502  -57.2460 H         1 UNK         0.0798 
    115 H115       32.7603  -50.8648  -56.6206 H         1 UNK         0.0798 
    116 H116       32.5166  -49.1231  -56.5237 H         1 UNK         0.0798 
    117 H117       32.8244  -49.2705  -53.9104 H         1 UNK         0.3079 
    118 H118       33.5664  -50.8403  -51.3854 H         1 UNK         0.0794 
    119 H119       35.7963  -51.9816  -51.5482 H         1 UNK         0.0786 
    120 H120       35.4474  -52.4126  -53.2220 H         1 UNK         0.0786 
    121 H121       34.4695  -53.0677  -51.9181 H         1 UNK         0.0786 
    122 H122       34.6968  -49.0316  -51.8897 H         1 UNK         0.3032 
    123 H123       36.1222  -47.6380  -52.6625 H         1 UNK         0.1094 
    124 H124       38.0823  -47.0847  -54.0255 H         1 UNK         0.0794 
    125 H125       38.1552  -48.7831  -53.5901 H         1 UNK         0.0794 
    126 H126       37.6663  -48.3205  -55.2137 H         1 UNK         0.0794 
    127 H127       35.9923  -46.3628  -55.0144 H         1 UNK         0.3016 
@<TRIPOS>BOND
     1    1    2 1    
     2    1   67 1    
     3    1   68 1    
     4    1   69 1    
     5    2    3 2    
     6    2    4 am   BACKBONE|DICT|INTERRES
     7    4    5 1    
     8    4   70 1    
     9    5    6 1    
    10    5   65 1    
    11    5   71 1    
    12    6    7 1    
    13    6   72 1    
    14    6   73 1    
    15    7    8 1    
    16    8    9 1    
    17    8   74 1    
    18    8   75 1    
    19    9   10 ar   
    20    9   14 ar   
    21   10   11 ar   
    22   10   76 1    
    23   11   12 ar   
    24   11   48 1    
    25   12   13 ar   
    26   12   77 1    
    27   13   14 ar   
    28   13   15 1    
    29   14   78 1    
    30   15   16 1    
    31   15   79 1    
    32   15   80 1    
    33   16   17 1    
    34   17   18 1    
    35   17   81 1    
    36   17   82 1    
    37   18   19 1    
    38   18   22 1    
    39   18   83 1    
    40   19   20 am   BACKBONE|DICT|INTERRES
    41   19   21 2    
    42   20   84 1    
    43   20   85 1    
    44   22   23 am   BACKBONE|DICT|INTERRES
    45   22   86 1    
    46   23   24 2    
    47   23   25 1    
    48   25   26 1    
    49   25   27 1    
    50   25   87 1    
    51   26   88 1    
    52   26   89 1    
    53   26   90 1    
    54   27   28 am   BACKBONE|DICT|INTERRES
    55   27   91 1    
    56   28   29 2    
    57   28   30 1    
    58   30   31 1    
    59   30   32 1    
    60   30   92 1    
    61   31   93 1    
    62   31   94 1    
    63   31   95 1    
    64   32   33 am   BACKBONE|DICT|INTERRES
    65   32   96 1    
    66   33   34 2    
    67   33   35 1    
    68   35   36 1    
    69   35   37 1    
    70   35   97 1    
    71   36   98 1    
    72   36   99 1    
    73   36  100 1    
    74   37   38 am   BACKBONE|DICT|INTERRES
    75   37  101 1    
    76   38   39 2    
    77   38   40 1    
    78   40   41 1    
    79   40   42 1    
    80   40  102 1    
    81   41  103 1    
    82   41  104 1    
    83   41  105 1    
    84   42   43 am   BACKBONE|DICT|INTERRES
    85   42  106 1    
    86   43   44 2    
    87   43   45 1    
    88   45   46 1    
    89   45   49 1    
    90   45  107 1    
    91   46   47 1    
    92   46  108 1    
    93   46  109 1    
    94   47   48 1    
    95   48  110 1    
    96   48  111 1    
    97   49   50 am   BACKBONE|DICT|INTERRES
    98   49  112 1    
    99   50   51 2    
   100   50   52 1    
   101   52   53 1    
   102   52   54 1    
   103   52  113 1    
   104   53  114 1    
   105   53  115 1    
   106   53  116 1    
   107   54   55 am   BACKBONE|DICT|INTERRES
   108   54  117 1    
   109   55   56 2    
   110   55   57 1    
   111   57   58 1    
   112   57   59 1    
   113   57  118 1    
   114   58  119 1    
   115   58  120 1    
   116   58  121 1    
   117   59   60 am   BACKBONE|DICT|INTERRES
   118   59  122 1    
   119   60   61 2    
   120   60   62 1    
   121   62   63 1    
   122   62   64 1    
   123   62  123 1    
   124   63  124 1    
   125   63  125 1    
   126   63  126 1    
   127   64   65 am   BACKBONE|DICT|INTERRES
   128   64  127 1    
   129   65   66 2    
@<TRIPOS>SUBSTRUCTURE
     1 UNK         1 GROUP             0       ****    0 ROOT    
