@<TRIPOS>MOLECULE
3R134
127   129    1
SMALL
USER_CHARGES


@<TRIPOS>ATOM
      1 CA         36.0903  -46.6864  -55.6554 C.3       0 UNK        -0.1968 
      2 C          34.8227  -46.8550  -54.8332 C.2       0 UNK         0.4852 
      3 O          34.0944  -47.8283  -55.0266 O.2       0 UNK        -0.5359 
      4 N          34.5483  -45.9194  -53.9127 N.am      1 UNK        -0.4300 
      5 CA         33.3609  -45.9113  -53.0426 C.3       1 UNK         0.0863 
      6 C6         33.1729  -44.5348  -52.3513 C.3       11 UNK        -0.0953 
      7 S7         31.4146  -44.0551  -52.2147 S.3       11 UNK        -0.2369 
      8 C8         31.4244  -42.3706  -52.9118 C.3       11 UNK         0.0226 
      9 C9         31.0636  -42.3352  -54.3929 C.ar      11 UNK        -0.0699 
     10 C10        31.8521  -42.9941  -55.3441 C.ar      11 UNK        -0.0804 
     11 C11        31.5294  -42.9276  -56.7036 C.ar      11 UNK        -0.0871 
     12 C12        30.4204  -42.1832  -57.1113 C.ar      11 UNK        -0.1008 
     13 C13        29.6289  -41.5163  -56.1743 C.ar      11 UNK        -0.0735 
     14 C14        29.9518  -41.5991  -54.8170 C.ar      11 UNK        -0.0945 
     15 C15        28.4357  -40.6964  -56.6394 C.3       11 UNK         0.0169 
     16 S16        27.0481  -41.7582  -57.1436 S.3       11 UNK        -0.2669 
     17 C17        26.4988  -42.4334  -55.5375 C.3       11 UNK        -0.0850 
     18 CA         26.9858  -43.8872  -55.2633 C.3       10 UNK         0.0855 
     19 C          26.5222  -44.3460  -53.8539 C.2       10 UNK         0.5543 
     20 N          27.3819  -44.2060  -52.8528 N.am      10 UNK        -0.7343 
     21 O          25.3890  -44.7660  -53.6374 O.2       10 UNK        -0.5027 
     22 N          26.6758  -44.8365  -56.3498 N.am      10 UNK        -0.4495 
     23 C          25.4773  -45.0631  -56.9056 C.2       10 UNK         0.4903 
     24 O          24.4136  -44.6058  -56.4867 O.2       10 UNK        -0.4860 
     25 CA         25.4540  -45.8611  -58.2163 C.3       9 UNK         0.0227 
     26 CB         25.8190  -44.9334  -59.3948 C.3       9 UNK        -0.1964 
     27 N          26.3117  -47.0507  -58.2100 N.am      9 UNK        -0.4231 
     28 C          26.1759  -48.0589  -59.0858 C.2       9 UNK         0.5014 
     29 O          25.3097  -48.0941  -59.9621 O.2       9 UNK        -0.5270 
     30 CA         27.1658  -49.2319  -58.9869 C.3       8 UNK         0.0284 
     31 CB         28.5047  -48.8639  -59.6455 C.3       8 UNK        -0.1977 
     32 N          27.3810  -49.6961  -57.6152 N.am      8 UNK        -0.4342 
     33 C          26.4350  -50.2706  -56.8562 C.2       8 UNK         0.5039 
     34 O          25.2882  -50.5008  -57.2427 O.2       8 UNK        -0.5547 
     35 CA         26.8277  -50.6552  -55.4211 C.3       7 UNK         0.0281 
     36 CB         27.4438  -52.0630  -55.3902 C.3       7 UNK        -0.1963 
     37 N          27.7538  -49.6955  -54.8183 N.am      7 UNK        -0.4444 
     38 C          27.4254  -48.4410  -54.4800 C.2       7 UNK         0.5104 
     39 O          26.2860  -47.9858  -54.5677 O.2       7 UNK        -0.5100 
     40 CA         28.5691  -47.5257  -54.0131 C.3       6 UNK         0.0396 
     41 CB         28.9442  -47.7896  -52.5477 C.3       6 UNK        -0.1801 
     42 N          29.7530  -47.6246  -54.8647 N.am      6 UNK        -0.4747 
     43 C          29.7967  -47.2491  -56.1525 C.2       6 UNK         0.5012 
     44 O          28.8452  -46.7365  -56.7465 O.2       6 UNK        -0.5003 
     45 CA         31.1047  -47.5477  -56.9152 C.3       5 UNK         0.0782 
     46 C46        32.0334  -46.3135  -56.9897 C.3       11 UNK        -0.0868 
     47 S47        31.5866  -45.1670  -58.3299 S.3       11 UNK        -0.2515 
     48 C48        32.3804  -43.6371  -57.7457 C.3       11 UNK         0.0199 
     49 N          31.8041  -48.7165  -56.3691 N.am      5 UNK        -0.4607 
     50 C          31.3636  -49.9743  -56.4952 C.2       4 UNK         0.5031 
     51 O          30.3130  -50.2698  -57.0671 O.2       4 UNK        -0.5119 
     52 CA         32.2208  -51.0804  -55.8567 C.3       4 UNK         0.0263 
     53 CB         33.6379  -51.1165  -56.4544 C.3       4 UNK        -0.1967 
     54 N          32.3010  -51.0105  -54.3931 N.am      4 UNK        -0.4237 
     55 C          31.2578  -51.0374  -53.5535 C.2       3 UNK         0.4908 
     56 O          30.0865  -50.9846  -53.9199 O.2       3 UNK        -0.5102 
     57 CA         31.5421  -51.1557  -52.0470 C.3       3 UNK         0.0241 
     58 CB         31.8689  -52.6099  -51.6541 C.3       3 UNK        -0.1971 
     59 N          32.5397  -50.2118  -51.5337 N.am      3 UNK        -0.4139 
     60 C          33.8574  -50.1598  -51.7628 C.2       2 UNK         0.5016 
     61 O          34.4613  -50.9313  -52.5114 O.2       2 UNK        -0.5319 
     62 CA         34.6055  -49.0039  -51.0716 C.3       2 UNK         0.0286 
     63 CB         36.1030  -49.3100  -50.8868 C.3       2 UNK        -0.1963 
     64 N          34.4681  -47.7664  -51.8392 N.am      2 UNK        -0.4790 
     65 C          33.3342  -47.0714  -52.0179 C.2       1 UNK         0.5024 
     66 O          32.2886  -47.3293  -51.4205 O.2       1 UNK        -0.4888 
     67 H67        35.8414  -46.6149  -56.7138 H         1 UNK         0.0892 
     68 H68        36.7430  -47.5477  -55.5166 H         1 UNK         0.0892 
     69 H69        36.6439  -45.7906  -55.3751 H         1 UNK         0.0892 
     70 H70        35.1932  -45.1523  -53.7831 H         1 UNK         0.3107 
     71 H71        32.5075  -46.0821  -53.7021 H         1 UNK         0.0773 
     72 H72        33.6214  -44.5161  -51.3558 H         1 UNK         0.0680 
     73 H73        33.6973  -43.7588  -52.9093 H         1 UNK         0.0680 
     74 H74        32.3942  -41.8958  -52.7587 H         1 UNK         0.0650 
     75 H75        30.7126  -41.7756  -52.3377 H         1 UNK         0.0650 
     76 H76        32.7180  -43.5570  -55.0283 H         1 UNK         0.1397 
     77 H77        30.1681  -42.1266  -58.1617 H         1 UNK         0.1363 
     78 H78        29.3429  -41.0770  -54.0916 H         1 UNK         0.1355 
     79 H79        28.7330  -40.0807  -57.4896 H         1 UNK         0.0707 
     80 H80        28.1072  -40.0033  -55.8632 H         1 UNK         0.0707 
     81 H81        25.4090  -42.3846  -55.5110 H         1 UNK         0.1034 
     82 H82        26.8346  -41.7676  -54.7406 H         1 UNK         0.1034 
     83 H83        28.0765  -43.8621  -55.2461 H         1 UNK         0.0482 
     84 H84        27.0938  -44.4695  -51.9239 H         1 UNK         0.3460 
     85 H85        28.3127  -43.8506  -53.0053 H         1 UNK         0.3460 
     86 H86        27.4883  -45.3051  -56.7357 H         1 UNK         0.2989 
     87 H87        24.4227  -46.1943  -58.3535 H         1 UNK         0.0559 
     88 H88        25.6430  -45.4123  -60.3577 H         1 UNK         0.0848 
     89 H89        26.8663  -44.6312  -59.3568 H         1 UNK         0.0848 
     90 H90        25.2183  -44.0227  -59.3772 H         1 UNK         0.0848 
     91 H91        27.0563  -47.0898  -57.5195 H         1 UNK         0.3144 
     92 H92        26.7426  -50.0699  -59.5453 H         1 UNK         0.0727 
     93 H93        29.2315  -49.6719  -59.5607 H         1 UNK         0.0790 
     94 H94        28.9372  -47.9662  -59.2061 H         1 UNK         0.0790 
     95 H95        28.3670  -48.6629  -60.7087 H         1 UNK         0.0790 
     96 H96        28.3228  -49.6279  -57.2439 H         1 UNK         0.3215 
     97 H97        25.9160  -50.6688  -54.8198 H         1 UNK         0.0863 
     98 H98        27.6526  -52.3812  -54.3687 H         1 UNK         0.0808 
     99 H99        28.3789  -52.1059  -55.9506 H         1 UNK         0.0808 
    100 H100       26.7654  -52.7971  -55.8269 H         1 UNK         0.0808 
    101 H101       28.7040  -50.0253  -54.6541 H         1 UNK         0.3118 
    102 H102       28.2171  -46.4997  -54.0853 H         1 UNK         0.0546 
    103 H103       29.3590  -48.7867  -52.4042 H         1 UNK         0.0828 
    104 H104       28.0690  -47.7040  -51.9024 H         1 UNK         0.0828 
    105 H105       29.6766  -47.0646  -52.1921 H         1 UNK         0.0828 
    106 H106       30.5662  -48.0761  -54.4726 H         1 UNK         0.3005 
    107 H107       30.8236  -47.8126  -57.9356 H         1 UNK         0.1257 
    108 H108       32.0711  -45.7880  -56.0350 H         1 UNK         0.0775 
    109 H109       33.0549  -46.6291  -57.2042 H         1 UNK         0.0775 
    110 H110       33.3748  -43.8604  -57.3554 H         1 UNK         0.0840 
    111 H111       32.5327  -42.9737  -58.5984 H         1 UNK         0.0840 
    112 H112       32.6750  -48.5342  -55.8693 H         1 UNK         0.2987 
    113 H113       31.7381  -52.0290  -56.1006 H         1 UNK         0.0785 
    114 H114       34.2266  -50.2458  -56.1650 H         1 UNK         0.0798 
    115 H115       33.6037  -51.1415  -57.5444 H         1 UNK         0.0798 
    116 H116       34.1796  -52.0045  -56.1284 H         1 UNK         0.0798 
    117 H117       33.2282  -51.0274  -53.9749 H         1 UNK         0.3079 
    118 H118       30.6131  -50.8911  -51.5392 H         1 UNK         0.0794 
    119 H119       32.7828  -52.9690  -52.1281 H         1 UNK         0.0786 
    120 H120       31.0644  -53.2824  -51.9551 H         1 UNK         0.0786 
    121 H121       31.9887  -52.7113  -50.5755 H         1 UNK         0.0786 
    122 H122       32.1534  -49.4349  -51.0086 H         1 UNK         0.3032 
    123 H123       34.1672  -48.8556  -50.0818 H         1 UNK         0.1094 
    124 H124       36.6049  -48.5161  -50.3334 H         1 UNK         0.0794 
    125 H125       36.2443  -50.2345  -50.3253 H         1 UNK         0.0794 
    126 H126       36.6152  -49.4284  -51.8426 H         1 UNK         0.0794 
    127 H127       35.2671  -47.4966  -52.3936 H         1 UNK         0.3016 
@<TRIPOS>BOND
     1    1    2 1    
     2    1   67 1    
     3    1   68 1    
     4    1   69 1    
     5    2    3 2    
     6    2    4 am   BACKBONE|DICT|INTERRES
     7    4    5 1    
     8    4   70 1    
     9    5    6 1    
    10    5   65 1    
    11    5   71 1    
    12    6    7 1    
    13    6   72 1    
    14    6   73 1    
    15    7    8 1    
    16    8    9 1    
    17    8   74 1    
    18    8   75 1    
    19    9   10 ar   
    20    9   14 ar   
    21   10   11 ar   
    22   10   76 1    
    23   11   12 ar   
    24   11   48 1    
    25   12   13 ar   
    26   12   77 1    
    27   13   14 ar   
    28   13   15 1    
    29   14   78 1    
    30   15   16 1    
    31   15   79 1    
    32   15   80 1    
    33   16   17 1    
    34   17   18 1    
    35   17   81 1    
    36   17   82 1    
    37   18   19 1    
    38   18   22 1    
    39   18   83 1    
    40   19   20 am   BACKBONE|DICT|INTERRES
    41   19   21 2    
    42   20   84 1    
    43   20   85 1    
    44   22   23 am   BACKBONE|DICT|INTERRES
    45   22   86 1    
    46   23   24 2    
    47   23   25 1    
    48   25   26 1    
    49   25   27 1    
    50   25   87 1    
    51   26   88 1    
    52   26   89 1    
    53   26   90 1    
    54   27   28 am   BACKBONE|DICT|INTERRES
    55   27   91 1    
    56   28   29 2    
    57   28   30 1    
    58   30   31 1    
    59   30   32 1    
    60   30   92 1    
    61   31   93 1    
    62   31   94 1    
    63   31   95 1    
    64   32   33 am   BACKBONE|DICT|INTERRES
    65   32   96 1    
    66   33   34 2    
    67   33   35 1    
    68   35   36 1    
    69   35   37 1    
    70   35   97 1    
    71   36   98 1    
    72   36   99 1    
    73   36  100 1    
    74   37   38 am   BACKBONE|DICT|INTERRES
    75   37  101 1    
    76   38   39 2    
    77   38   40 1    
    78   40   41 1    
    79   40   42 1    
    80   40  102 1    
    81   41  103 1    
    82   41  104 1    
    83   41  105 1    
    84   42   43 am   BACKBONE|DICT|INTERRES
    85   42  106 1    
    86   43   44 2    
    87   43   45 1    
    88   45   46 1    
    89   45   49 1    
    90   45  107 1    
    91   46   47 1    
    92   46  108 1    
    93   46  109 1    
    94   47   48 1    
    95   48  110 1    
    96   48  111 1    
    97   49   50 am   BACKBONE|DICT|INTERRES
    98   49  112 1    
    99   50   51 2    
   100   50   52 1    
   101   52   53 1    
   102   52   54 1    
   103   52  113 1    
   104   53  114 1    
   105   53  115 1    
   106   53  116 1    
   107   54   55 am   BACKBONE|DICT|INTERRES
   108   54  117 1    
   109   55   56 2    
   110   55   57 1    
   111   57   58 1    
   112   57   59 1    
   113   57  118 1    
   114   58  119 1    
   115   58  120 1    
   116   58  121 1    
   117   59   60 am   BACKBONE|DICT|INTERRES
   118   59  122 1    
   119   60   61 2    
   120   60   62 1    
   121   62   63 1    
   122   62   64 1    
   123   62  123 1    
   124   63  124 1    
   125   63  125 1    
   126   63  126 1    
   127   64   65 am   BACKBONE|DICT|INTERRES
   128   64  127 1    
   129   65   66 2    
@<TRIPOS>SUBSTRUCTURE
     1 UNK         1 GROUP             0       ****    0 ROOT    
