@<TRIPOS>MOLECULE
3R134
127   129    1
SMALL
USER_CHARGES


@<TRIPOS>ATOM
      1 CA         38.1094  -44.2209  -53.7468 C.3       0 UNK        -0.1968 
      2 C          36.6852  -44.7547  -53.7680 C.2       0 UNK         0.4852 
      3 O          36.3266  -45.5067  -54.6759 O.2       0 UNK        -0.5359 
      4 N          35.8717  -44.3809  -52.7719 N.am      1 UNK        -0.4300 
      5 CA         34.4646  -44.7740  -52.6198 C.3       1 UNK         0.0863 
      6 C6         33.6507  -43.7043  -51.8359 C.3       11 UNK        -0.0953 
      7 S7         33.8075  -42.0276  -52.5592 S.3       11 UNK        -0.2369 
      8 C8         32.0729  -41.4699  -52.7422 C.3       11 UNK         0.0226 
      9 C9         31.2195  -42.2127  -53.7741 C.ar      11 UNK        -0.0699 
     10 C10        31.7587  -43.1344  -54.6805 C.ar      11 UNK        -0.0804 
     11 C11        30.9299  -43.8651  -55.5331 C.ar      11 UNK        -0.0871 
     12 C12        29.5567  -43.6228  -55.5323 C.ar      11 UNK        -0.1008 
     13 C13        29.0043  -42.6692  -54.6771 C.ar      11 UNK        -0.0735 
     14 C14        29.8394  -41.9733  -53.7961 C.ar      11 UNK        -0.0945 
     15 C15        27.4993  -42.4454  -54.6661 C.3       11 UNK         0.0169 
     16 S16        26.9672  -41.1052  -55.7826 S.3       11 UNK        -0.2669 
     17 C17        27.3530  -41.7247  -57.4610 C.3       11 UNK        -0.0850 
     18 CA         26.2240  -42.6011  -58.0664 C.3       10 UNK         0.0855 
     19 C          26.3745  -42.7231  -59.6069 C.2       10 UNK         0.5543 
     20 N          25.8066  -41.7897  -60.3575 N.am      10 UNK        -0.7343 
     21 O          27.0295  -43.6253  -60.1245 O.2       10 UNK        -0.5027 
     22 N          26.1772  -43.9223  -57.4291 N.am      10 UNK        -0.4495 
     23 C          25.1137  -44.7284  -57.4010 C.2       10 UNK         0.4903 
     24 O          24.0141  -44.4393  -57.8765 O.2       10 UNK        -0.4860 
     25 CA         25.3314  -46.0925  -56.7243 C.3       9 UNK         0.0227 
     26 CB         24.0165  -46.7206  -56.2280 C.3       9 UNK        -0.1964 
     27 N          25.9986  -47.0407  -57.6145 N.am      9 UNK        -0.4231 
     28 C          27.2909  -47.0267  -57.9625 C.2       9 UNK         0.5014 
     29 O          28.0940  -46.1701  -57.5875 O.2       9 UNK        -0.5270 
     30 CA         27.7625  -48.2045  -58.8380 C.3       8 UNK         0.0284 
     31 CB         29.2279  -48.0670  -59.2934 C.3       8 UNK        -0.1977 
     32 N          27.5922  -49.4827  -58.1393 N.am      8 UNK        -0.4342 
     33 C          26.4320  -50.1434  -58.0134 C.2       8 UNK         0.5039 
     34 O          25.3738  -49.7596  -58.5147 O.2       8 UNK        -0.5547 
     35 CA         26.4429  -51.4053  -57.1407 C.3       7 UNK         0.0281 
     36 CB         27.2252  -52.5458  -57.8141 C.3       7 UNK        -0.1963 
     37 N          27.0228  -51.1035  -55.8324 N.am      7 UNK        -0.4444 
     38 C          26.3250  -50.6664  -54.7727 C.2       7 UNK         0.5104 
     39 O          25.0971  -50.5803  -54.7463 O.2       7 UNK        -0.5100 
     40 CA         27.1345  -50.2349  -53.5340 C.3       6 UNK         0.0396 
     41 CB         27.3275  -51.4209  -52.5770 C.3       6 UNK        -0.1801 
     42 N          28.4379  -49.6720  -53.8992 N.am      6 UNK        -0.4747 
     43 C          28.5860  -48.4832  -54.5086 C.2       6 UNK         0.5012 
     44 O          27.6654  -47.6751  -54.6188 O.2       6 UNK        -0.5003 
     45 CA         29.9537  -48.1456  -55.1431 C.3       5 UNK         0.0782 
     46 C46        30.5836  -46.8867  -54.5104 C.3       11 UNK        -0.0868 
     47 S47        32.1004  -46.3644  -55.3925 S.3       11 UNK        -0.2515 
     48 C48        31.5079  -44.9690  -56.4037 C.3       11 UNK         0.0199 
     49 N          30.8823  -49.2784  -55.1459 N.am      5 UNK        -0.4607 
     50 C          30.7695  -50.3640  -55.9213 C.2       4 UNK         0.5031 
     51 O          29.8594  -50.5152  -56.7374 O.2       4 UNK        -0.5119 
     52 CA         31.8013  -51.4906  -55.7196 C.3       4 UNK         0.0263 
     53 CB         32.9148  -51.3829  -56.7727 C.3       4 UNK        -0.1967 
     54 N          32.4010  -51.5117  -54.3796 N.am      4 UNK        -0.4237 
     55 C          31.7213  -51.6773  -53.2345 C.2       3 UNK         0.4908 
     56 O          30.5146  -51.9166  -53.1928 O.2       3 UNK        -0.5102 
     57 CA         32.4929  -51.4935  -51.9124 C.3       3 UNK         0.0241 
     58 CB         32.9285  -52.8587  -51.3564 C.3       3 UNK        -0.1971 
     59 N          33.6615  -50.6025  -51.9811 N.am      3 UNK        -0.4139 
     60 C          33.6556  -49.3306  -52.4086 C.2       2 UNK         0.5016 
     61 O          32.6543  -48.7748  -52.8600 O.2       2 UNK        -0.5319 
     62 CA         35.0061  -48.5912  -52.3665 C.3       2 UNK         0.0286 
     63 CB         36.0220  -49.2555  -53.3145 C.3       2 UNK        -0.1963 
     64 N          34.9029  -47.1774  -52.7379 N.am      2 UNK        -0.4790 
     65 C          34.3746  -46.1901  -52.0026 C.2       1 UNK         0.5024 
     66 O          33.9026  -46.3543  -50.8758 O.2       1 UNK        -0.4888 
     67 H67        38.3160  -43.6714  -54.6654 H         1 UNK         0.0892 
     68 H68        38.2815  -43.5504  -52.9041 H         1 UNK         0.0892 
     69 H69        38.8187  -45.0465  -53.6751 H         1 UNK         0.0892 
     70 H70        36.2272  -43.7747  -52.0466 H         1 UNK         0.3107 
     71 H71        34.0248  -44.8521  -53.6143 H         1 UNK         0.0773 
     72 H72        33.9839  -43.6504  -50.7981 H         1 UNK         0.0680 
     73 H73        32.5966  -43.9858  -51.8044 H         1 UNK         0.0680 
     74 H74        32.0872  -40.4128  -53.0105 H         1 UNK         0.0650 
     75 H75        31.5914  -41.5331  -51.7651 H         1 UNK         0.0650 
     76 H76        32.8195  -43.3280  -54.7058 H         1 UNK         0.1397 
     77 H77        28.9138  -44.1996  -56.1805 H         1 UNK         0.1363 
     78 H78        29.4091  -41.2554  -53.1109 H         1 UNK         0.1355 
     79 H79        27.1796  -42.1930  -53.6539 H         1 UNK         0.0707 
     80 H80        26.9751  -43.3682  -54.9151 H         1 UNK         0.0707 
     81 H81        27.5044  -40.8358  -58.0768 H         1 UNK         0.1034 
     82 H82        28.3106  -42.2441  -57.4760 H         1 UNK         0.1034 
     83 H83        25.2716  -42.1031  -57.8714 H         1 UNK         0.0482 
     84 H84        25.9038  -41.8406  -61.3597 H         1 UNK         0.3460 
     85 H85        25.2739  -41.0403  -59.9441 H         1 UNK         0.3460 
     86 H86        27.0653  -44.3257  -57.1598 H         1 UNK         0.2989 
     87 H87        25.9682  -45.9324  -55.8517 H         1 UNK         0.0559 
     88 H88        23.4885  -46.0415  -55.5573 H         1 UNK         0.0848 
     89 H89        24.2042  -47.6413  -55.6742 H         1 UNK         0.0848 
     90 H90        23.3421  -46.9569  -57.0521 H         1 UNK         0.0848 
     91 H91        25.4397  -47.8138  -57.9631 H         1 UNK         0.3144 
     92 H92        27.1410  -48.2065  -59.7362 H         1 UNK         0.0727 
     93 H93        29.5058  -48.8714  -59.9745 H         1 UNK         0.0790 
     94 H94        29.9243  -48.0872  -58.4558 H         1 UNK         0.0790 
     95 H95        29.3839  -47.1264  -59.8236 H         1 UNK         0.0790 
     96 H96        28.4181  -49.8609  -57.6783 H         1 UNK         0.3215 
     97 H97        25.4099  -51.7381  -57.0159 H         1 UNK         0.0863 
     98 H98        27.1918  -53.4545  -57.2129 H         1 UNK         0.0808 
     99 H99        28.2733  -52.2916  -57.9744 H         1 UNK         0.0808 
    100 H100       26.7970  -52.7870  -58.7880 H         1 UNK         0.0808 
    101 H101       28.0339  -51.1002  -55.7790 H         1 UNK         0.3118 
    102 H102       26.5630  -49.4668  -53.0085 H         1 UNK         0.0546 
    103 H103       27.8493  -52.2490  -53.0582 H         1 UNK         0.0828 
    104 H104       26.3654  -51.8013  -52.2316 H         1 UNK         0.0828 
    105 H105       27.8987  -51.1323  -51.6945 H         1 UNK         0.0828 
    106 H106       29.2427  -50.2814  -53.7993 H         1 UNK         0.3005 
    107 H107       29.7335  -47.9004  -56.1824 H         1 UNK         0.1257 
    108 H108       30.8370  -47.0661  -53.4650 H         1 UNK         0.0775 
    109 H109       29.8611  -46.0723  -54.4946 H         1 UNK         0.0775 
    110 H110       32.3380  -44.5735  -56.9906 H         1 UNK         0.0840 
    111 H111       30.7685  -45.3342  -57.1189 H         1 UNK         0.0840 
    112 H112       31.6376  -49.2174  -54.4674 H         1 UNK         0.2987 
    113 H113       31.2786  -52.4383  -55.8644 H         1 UNK         0.0785 
    114 H114       32.4990  -51.3905  -57.7815 H         1 UNK         0.0798 
    115 H115       33.6094  -52.2204  -56.7047 H         1 UNK         0.0798 
    116 H116       33.4861  -50.4600  -56.6629 H         1 UNK         0.0798 
    117 H117       33.3888  -51.3139  -54.3201 H         1 UNK         0.3079 
    118 H118       31.7944  -51.0450  -51.2028 H         1 UNK         0.0794 
    119 H119       33.6631  -53.3419  -52.0019 H         1 UNK         0.0786 
    120 H120       32.0767  -53.5351  -51.2689 H         1 UNK         0.0786 
    121 H121       33.3646  -52.7630  -50.3617 H         1 UNK         0.0786 
    122 H122       34.5304  -50.9872  -51.6386 H         1 UNK         0.3032 
    123 H123       35.3836  -48.6462  -51.3428 H         1 UNK         0.1094 
    124 H124       35.6712  -49.2484  -54.3479 H         1 UNK         0.0794 
    125 H125       36.9828  -48.7406  -53.2872 H         1 UNK         0.0794 
    126 H126       36.2124  -50.2937  -53.0403 H         1 UNK         0.0794 
    127 H127       35.2836  -46.9158  -53.6419 H         1 UNK         0.3016 
@<TRIPOS>BOND
     1    1    2 1    
     2    1   67 1    
     3    1   68 1    
     4    1   69 1    
     5    2    3 2    
     6    2    4 am   BACKBONE|DICT|INTERRES
     7    4    5 1    
     8    4   70 1    
     9    5    6 1    
    10    5   65 1    
    11    5   71 1    
    12    6    7 1    
    13    6   72 1    
    14    6   73 1    
    15    7    8 1    
    16    8    9 1    
    17    8   74 1    
    18    8   75 1    
    19    9   10 ar   
    20    9   14 ar   
    21   10   11 ar   
    22   10   76 1    
    23   11   12 ar   
    24   11   48 1    
    25   12   13 ar   
    26   12   77 1    
    27   13   14 ar   
    28   13   15 1    
    29   14   78 1    
    30   15   16 1    
    31   15   79 1    
    32   15   80 1    
    33   16   17 1    
    34   17   18 1    
    35   17   81 1    
    36   17   82 1    
    37   18   19 1    
    38   18   22 1    
    39   18   83 1    
    40   19   20 am   BACKBONE|DICT|INTERRES
    41   19   21 2    
    42   20   84 1    
    43   20   85 1    
    44   22   23 am   BACKBONE|DICT|INTERRES
    45   22   86 1    
    46   23   24 2    
    47   23   25 1    
    48   25   26 1    
    49   25   27 1    
    50   25   87 1    
    51   26   88 1    
    52   26   89 1    
    53   26   90 1    
    54   27   28 am   BACKBONE|DICT|INTERRES
    55   27   91 1    
    56   28   29 2    
    57   28   30 1    
    58   30   31 1    
    59   30   32 1    
    60   30   92 1    
    61   31   93 1    
    62   31   94 1    
    63   31   95 1    
    64   32   33 am   BACKBONE|DICT|INTERRES
    65   32   96 1    
    66   33   34 2    
    67   33   35 1    
    68   35   36 1    
    69   35   37 1    
    70   35   97 1    
    71   36   98 1    
    72   36   99 1    
    73   36  100 1    
    74   37   38 am   BACKBONE|DICT|INTERRES
    75   37  101 1    
    76   38   39 2    
    77   38   40 1    
    78   40   41 1    
    79   40   42 1    
    80   40  102 1    
    81   41  103 1    
    82   41  104 1    
    83   41  105 1    
    84   42   43 am   BACKBONE|DICT|INTERRES
    85   42  106 1    
    86   43   44 2    
    87   43   45 1    
    88   45   46 1    
    89   45   49 1    
    90   45  107 1    
    91   46   47 1    
    92   46  108 1    
    93   46  109 1    
    94   47   48 1    
    95   48  110 1    
    96   48  111 1    
    97   49   50 am   BACKBONE|DICT|INTERRES
    98   49  112 1    
    99   50   51 2    
   100   50   52 1    
   101   52   53 1    
   102   52   54 1    
   103   52  113 1    
   104   53  114 1    
   105   53  115 1    
   106   53  116 1    
   107   54   55 am   BACKBONE|DICT|INTERRES
   108   54  117 1    
   109   55   56 2    
   110   55   57 1    
   111   57   58 1    
   112   57   59 1    
   113   57  118 1    
   114   58  119 1    
   115   58  120 1    
   116   58  121 1    
   117   59   60 am   BACKBONE|DICT|INTERRES
   118   59  122 1    
   119   60   61 2    
   120   60   62 1    
   121   62   63 1    
   122   62   64 1    
   123   62  123 1    
   124   63  124 1    
   125   63  125 1    
   126   63  126 1    
   127   64   65 am   BACKBONE|DICT|INTERRES
   128   64  127 1    
   129   65   66 2    
@<TRIPOS>SUBSTRUCTURE
     1 UNK         1 GROUP             0       ****    0 ROOT    
