@<TRIPOS>MOLECULE
3R134
127   129    1
SMALL
USER_CHARGES


@<TRIPOS>ATOM
      1 CA         29.6180  -42.9094  -51.2656 C.3       0 UNK        -0.1968 
      2 C          30.8328  -43.6752  -50.7639 C.2       0 UNK         0.4852 
      3 O          31.0425  -43.7707  -49.5531 O.2       0 UNK        -0.5359 
      4 N          31.6403  -44.2081  -51.6896 N.am      1 UNK        -0.4300 
      5 CA         32.8314  -45.0144  -51.3985 C.3       1 UNK         0.0863 
      6 C6         33.7353  -45.1963  -52.6443 C.3       11 UNK        -0.0953 
      7 S7         34.3209  -43.6176  -53.3344 S.3       11 UNK        -0.2369 
      8 C8         34.7924  -44.1359  -55.0228 C.3       11 UNK         0.0226 
      9 C9         33.6469  -44.3356  -56.0210 C.ar      11 UNK        -0.0699 
     10 C10        33.9421  -44.9320  -57.2509 C.ar      11 UNK        -0.0804 
     11 C11        32.9614  -45.0740  -58.2366 C.ar      11 UNK        -0.0871 
     12 C12        31.6563  -44.6480  -57.9715 C.ar      11 UNK        -0.1008 
     13 C13        31.3334  -44.0582  -56.7453 C.ar      11 UNK        -0.0735 
     14 C14        32.3384  -43.8930  -55.7832 C.ar      11 UNK        -0.0945 
     15 C15        29.9189  -43.5233  -56.5228 C.3       11 UNK         0.0169 
     16 S16        29.3249  -43.6645  -54.8032 S.3       11 UNK        -0.2669 
     17 C17        27.8015  -42.6630  -54.8773 C.3       11 UNK        -0.0850 
     18 CA         26.5236  -43.4387  -54.4414 C.3       10 UNK         0.0855 
     19 C          25.2760  -42.5083  -54.3357 C.2       10 UNK         0.5543 
     20 N          24.0717  -42.9777  -54.6395 N.am      10 UNK        -0.7343 
     21 O          25.3923  -41.3501  -53.9420 O.2       10 UNK        -0.5027 
     22 N          26.2865  -44.6851  -55.1946 N.am      10 UNK        -0.4495 
     23 C          26.1118  -44.8109  -56.5160 C.2       10 UNK         0.4903 
     24 O          26.2019  -43.8712  -57.3076 O.2       10 UNK        -0.4860 
     25 CA         25.7528  -46.2212  -57.0377 C.3       9 UNK         0.0227 
     26 CB         25.7982  -46.3071  -58.5738 C.3       9 UNK        -0.1964 
     27 N          26.5893  -47.2907  -56.4804 N.am      9 UNK        -0.4231 
     28 C          26.4970  -47.7953  -55.2430 C.2       9 UNK         0.5014 
     29 O          25.6881  -47.3918  -54.4039 O.2       9 UNK        -0.5270 
     30 CA         27.4990  -48.9055  -54.8841 C.3       8 UNK         0.0284 
     31 CB         27.4241  -49.3494  -53.4079 C.3       8 UNK        -0.1977 
     32 N          27.4332  -50.0540  -55.7883 N.am      8 UNK        -0.4342 
     33 C          26.3962  -50.8764  -56.0014 C.2       8 UNK         0.5039 
     34 O          25.3115  -50.7959  -55.4217 O.2       8 UNK        -0.5547 
     35 CA         26.6368  -51.9825  -57.0488 C.3       7 UNK         0.0281 
     36 CB         25.3573  -52.7682  -57.4115 C.3       7 UNK        -0.1963 
     37 N          27.3060  -51.4706  -58.2532 N.am      7 UNK        -0.4444 
     38 C          26.8394  -50.5397  -59.0996 C.2       7 UNK         0.5104 
     39 O          25.7279  -50.0162  -59.0126 O.2       7 UNK        -0.5100 
     40 CA         27.8081  -50.1201  -60.2223 C.3       6 UNK         0.0396 
     41 CB         27.2605  -48.9720  -61.0960 C.3       6 UNK        -0.1801 
     42 N          29.1567  -49.7899  -59.7381 N.am      6 UNK        -0.4747 
     43 C          29.4884  -48.8696  -58.8175 C.2       6 UNK         0.5012 
     44 O          28.6710  -48.2114  -58.1683 O.2       6 UNK        -0.5003 
     45 CA         30.9989  -48.6149  -58.6414 C.3       5 UNK         0.0782 
     46 C46        31.5324  -47.7720  -59.8257 C.3       11 UNK        -0.0868 
     47 S47        33.3199  -47.4270  -59.6970 S.3       11 UNK        -0.2515 
     48 C48        33.3403  -45.6089  -59.6126 C.3       11 UNK         0.0199 
     49 N          31.3148  -47.9865  -57.3573 N.am      5 UNK        -0.4607 
     50 C          31.2357  -48.5780  -56.1632 C.2       4 UNK         0.5031 
     51 O          30.7901  -49.7139  -55.9800 O.2       4 UNK        -0.5119 
     52 CA         31.7292  -47.7340  -54.9765 C.3       4 UNK         0.0263 
     53 CB         30.5807  -46.9125  -54.3721 C.3       4 UNK        -0.1967 
     54 N          32.3520  -48.5398  -53.9251 N.am      4 UNK        -0.4237 
     55 C          33.4900  -49.2354  -54.0618 C.2       3 UNK         0.4908 
     56 O          34.1818  -49.2219  -55.0814 O.2       3 UNK        -0.5102 
     57 CA         33.9421  -50.0432  -52.8335 C.3       3 UNK         0.0241 
     58 CB         35.3619  -50.6240  -52.9802 C.3       3 UNK        -0.1971 
     59 N          33.8904  -49.1868  -51.6501 N.am      3 UNK        -0.4139 
     60 C          33.2315  -49.4524  -50.5156 C.2       2 UNK         0.5016 
     61 O          32.6476  -50.5125  -50.2885 O.2       2 UNK        -0.5319 
     62 CA         33.1994  -48.3302  -49.4593 C.3       2 UNK         0.0286 
     63 CB         34.2915  -48.5566  -48.4013 C.3       2 UNK        -0.1963 
     64 N          33.3462  -46.9819  -50.0264 N.am      2 UNK        -0.4790 
     65 C          32.4454  -46.3950  -50.8283 C.2       1 UNK         0.5024 
     66 O          31.3870  -46.9310  -51.1651 O.2       1 UNK        -0.4888 
     67 H67        29.8739  -42.2916  -52.1261 H         1 UNK         0.0892 
     68 H68        28.8287  -43.6017  -51.5576 H         1 UNK         0.0892 
     69 H69        29.2270  -42.2535  -50.4880 H         1 UNK         0.0892 
     70 H70        31.4045  -44.1090  -52.6658 H         1 UNK         0.3107 
     71 H71        33.4059  -44.4864  -50.6341 H         1 UNK         0.0773 
     72 H72        34.6186  -45.7881  -52.3972 H         1 UNK         0.0680 
     73 H73        33.2120  -45.7454  -53.4261 H         1 UNK         0.0680 
     74 H74        35.4616  -43.3760  -55.4280 H         1 UNK         0.0650 
     75 H75        35.3781  -45.0539  -54.9522 H         1 UNK         0.0650 
     76 H76        34.9541  -45.2528  -57.4592 H         1 UNK         0.1397 
     77 H77        30.8973  -44.7366  -58.7369 H         1 UNK         0.1363 
     78 H78        32.0982  -43.3910  -54.8587 H         1 UNK         0.1355 
     79 H79        29.2105  -44.0428  -57.1704 H         1 UNK         0.0707 
     80 H80        29.9058  -42.4738  -56.8196 H         1 UNK         0.0707 
     81 H81        27.6713  -42.2477  -55.8775 H         1 UNK         0.1034 
     82 H82        27.9607  -41.8033  -54.2240 H         1 UNK         0.1034 
     83 H83        26.6954  -43.7683  -53.4162 H         1 UNK         0.0482 
     84 H84        23.9582  -43.9304  -54.9458 H         1 UNK         0.3460 
     85 H85        23.2698  -42.3727  -54.5576 H         1 UNK         0.3460 
     86 H86        26.1488  -45.5207  -54.6340 H         1 UNK         0.2989 
     87 H87        24.7214  -46.4102  -56.7336 H         1 UNK         0.0559 
     88 H88        25.4718  -47.2867  -58.9224 H         1 UNK         0.0848 
     89 H89        26.8048  -46.1303  -58.9547 H         1 UNK         0.0848 
     90 H90        25.1385  -45.5693  -59.0322 H         1 UNK         0.0848 
     91 H91        27.3137  -47.6574  -57.0981 H         1 UNK         0.3144 
     92 H92        28.4822  -48.4766  -55.0499 H         1 UNK         0.0727 
     93 H93        28.1952  -50.0842  -53.1765 H         1 UNK         0.0790 
     94 H94        26.4562  -49.7882  -53.1641 H         1 UNK         0.0790 
     95 H95        27.5741  -48.5013  -52.7386 H         1 UNK         0.0790 
     96 H96        28.2675  -50.2016  -56.3409 H         1 UNK         0.3215 
     97 H97        27.3301  -52.6878  -56.5874 H         1 UNK         0.0863 
     98 H98        25.5645  -53.5499  -58.1422 H         1 UNK         0.0808 
     99 H99        24.5835  -52.1196  -57.8232 H         1 UNK         0.0808 
    100 H100       24.9360  -53.2531  -56.5301 H         1 UNK         0.0808 
    101 H101       28.2363  -51.8274  -58.4244 H         1 UNK         0.3118 
    102 H102       27.9158  -50.9939  -60.8667 H         1 UNK         0.0546 
    103 H103       27.1473  -48.0497  -60.5279 H         1 UNK         0.0828 
    104 H104       26.2831  -49.2231  -61.5100 H         1 UNK         0.0828 
    105 H105       27.9223  -48.7651  -61.9368 H         1 UNK         0.0828 
    106 H106       29.9061  -50.2841  -60.2040 H         1 UNK         0.3005 
    107 H107       31.5002  -49.5856  -58.6531 H         1 UNK         0.1257 
    108 H108       31.3730  -48.2954  -60.7704 H         1 UNK         0.0775 
    109 H109       30.9794  -46.8351  -59.9100 H         1 UNK         0.0775 
    110 H110       34.3438  -45.2650  -59.8684 H         1 UNK         0.0840 
    111 H111       32.6849  -45.1954  -60.3809 H         1 UNK         0.0840 
    112 H112       31.6734  -47.0434  -57.4137 H         1 UNK         0.2987 
    113 H113       32.4833  -47.0410  -55.3558 H         1 UNK         0.0785 
    114 H114       30.9583  -46.0634  -53.8071 H         1 UNK         0.0798 
    115 H115       29.9678  -47.5024  -53.6914 H         1 UNK         0.0798 
    116 H116       29.9279  -46.5100  -55.1479 H         1 UNK         0.0798 
    117 H117       31.8485  -48.6040  -53.0511 H         1 UNK         0.3079 
    118 H118       33.2414  -50.8751  -52.7344 H         1 UNK         0.0794 
    119 H119       35.4256  -51.2909  -53.8411 H         1 UNK         0.0786 
    120 H120       35.6437  -51.2039  -52.1012 H         1 UNK         0.0786 
    121 H121       36.1070  -49.8392  -53.1168 H         1 UNK         0.0786 
    122 H122       34.3297  -48.2819  -51.7383 H         1 UNK         0.3032 
    123 H123       32.2262  -48.3827  -48.9653 H         1 UNK         0.1094 
    124 H124       34.1919  -49.5417  -47.9428 H         1 UNK         0.0794 
    125 H125       35.2918  -48.4982  -48.8324 H         1 UNK         0.0794 
    126 H126       34.2264  -47.8212  -47.5991 H         1 UNK         0.0794 
    127 H127       34.1918  -46.4813  -49.7898 H         1 UNK         0.3016 
@<TRIPOS>BOND
     1    1    2 1    
     2    1   67 1    
     3    1   68 1    
     4    1   69 1    
     5    2    3 2    
     6    2    4 am   BACKBONE|DICT|INTERRES
     7    4    5 1    
     8    4   70 1    
     9    5    6 1    
    10    5   65 1    
    11    5   71 1    
    12    6    7 1    
    13    6   72 1    
    14    6   73 1    
    15    7    8 1    
    16    8    9 1    
    17    8   74 1    
    18    8   75 1    
    19    9   10 ar   
    20    9   14 ar   
    21   10   11 ar   
    22   10   76 1    
    23   11   12 ar   
    24   11   48 1    
    25   12   13 ar   
    26   12   77 1    
    27   13   14 ar   
    28   13   15 1    
    29   14   78 1    
    30   15   16 1    
    31   15   79 1    
    32   15   80 1    
    33   16   17 1    
    34   17   18 1    
    35   17   81 1    
    36   17   82 1    
    37   18   19 1    
    38   18   22 1    
    39   18   83 1    
    40   19   20 am   BACKBONE|DICT|INTERRES
    41   19   21 2    
    42   20   84 1    
    43   20   85 1    
    44   22   23 am   BACKBONE|DICT|INTERRES
    45   22   86 1    
    46   23   24 2    
    47   23   25 1    
    48   25   26 1    
    49   25   27 1    
    50   25   87 1    
    51   26   88 1    
    52   26   89 1    
    53   26   90 1    
    54   27   28 am   BACKBONE|DICT|INTERRES
    55   27   91 1    
    56   28   29 2    
    57   28   30 1    
    58   30   31 1    
    59   30   32 1    
    60   30   92 1    
    61   31   93 1    
    62   31   94 1    
    63   31   95 1    
    64   32   33 am   BACKBONE|DICT|INTERRES
    65   32   96 1    
    66   33   34 2    
    67   33   35 1    
    68   35   36 1    
    69   35   37 1    
    70   35   97 1    
    71   36   98 1    
    72   36   99 1    
    73   36  100 1    
    74   37   38 am   BACKBONE|DICT|INTERRES
    75   37  101 1    
    76   38   39 2    
    77   38   40 1    
    78   40   41 1    
    79   40   42 1    
    80   40  102 1    
    81   41  103 1    
    82   41  104 1    
    83   41  105 1    
    84   42   43 am   BACKBONE|DICT|INTERRES
    85   42  106 1    
    86   43   44 2    
    87   43   45 1    
    88   45   46 1    
    89   45   49 1    
    90   45  107 1    
    91   46   47 1    
    92   46  108 1    
    93   46  109 1    
    94   47   48 1    
    95   48  110 1    
    96   48  111 1    
    97   49   50 am   BACKBONE|DICT|INTERRES
    98   49  112 1    
    99   50   51 2    
   100   50   52 1    
   101   52   53 1    
   102   52   54 1    
   103   52  113 1    
   104   53  114 1    
   105   53  115 1    
   106   53  116 1    
   107   54   55 am   BACKBONE|DICT|INTERRES
   108   54  117 1    
   109   55   56 2    
   110   55   57 1    
   111   57   58 1    
   112   57   59 1    
   113   57  118 1    
   114   58  119 1    
   115   58  120 1    
   116   58  121 1    
   117   59   60 am   BACKBONE|DICT|INTERRES
   118   59  122 1    
   119   60   61 2    
   120   60   62 1    
   121   62   63 1    
   122   62   64 1    
   123   62  123 1    
   124   63  124 1    
   125   63  125 1    
   126   63  126 1    
   127   64   65 am   BACKBONE|DICT|INTERRES
   128   64  127 1    
   129   65   66 2    
@<TRIPOS>SUBSTRUCTURE
     1 UNK         1 GROUP             0       ****    0 ROOT    
