@<TRIPOS>MOLECULE
3R134
127   129    1
SMALL
USER_CHARGES


@<TRIPOS>ATOM
      1 CA         32.7624  -49.5002  -57.8708 C.3       0 UNK        -0.1968 
      2 C          33.5823  -48.6050  -56.9554 C.2       0 UNK         0.4852 
      3 O          34.8122  -48.6627  -56.9939 O.2       0 UNK        -0.5359 
      4 N          32.9077  -47.7925  -56.1290 N.am      1 UNK        -0.4300 
      5 CA         33.4498  -46.8134  -55.1749 C.3       1 UNK         0.0863 
      6 C6         34.3429  -45.7102  -55.8076 C.3       11 UNK        -0.0953 
      7 S7         33.4476  -44.6355  -56.9762 S.3       11 UNK        -0.2369 
      8 C8         33.3162  -43.0863  -56.0245 C.3       11 UNK         0.0226 
      9 C9         32.0937  -43.0866  -55.1190 C.ar      11 UNK        -0.0699 
     10 C10        32.1137  -43.7509  -53.8894 C.ar      11 UNK        -0.0804 
     11 C11        30.9797  -43.7882  -53.0714 C.ar      11 UNK        -0.0871 
     12 C12        29.8261  -43.1084  -53.4878 C.ar      11 UNK        -0.1008 
     13 C13        29.7926  -42.4338  -54.7119 C.ar      11 UNK        -0.0735 
     14 C14        30.9331  -42.4223  -55.5191 C.ar      11 UNK        -0.0945 
     15 C15        28.5225  -41.7211  -55.1583 C.3       11 UNK         0.0169 
     16 S16        27.9902  -42.2694  -56.8130 S.3       11 UNK        -0.2669 
     17 C17        26.2403  -41.7413  -56.8349 C.3       11 UNK        -0.0850 
     18 CA         25.3529  -42.5995  -57.7774 C.3       10 UNK         0.0855 
     19 C          25.5309  -42.1947  -59.2696 C.2       10 UNK         0.5543 
     20 N          24.8707  -41.1268  -59.6982 N.am      10 UNK        -0.7343 
     21 O          26.2779  -42.8073  -60.0295 O.2       10 UNK        -0.5027 
     22 N          25.5421  -44.0336  -57.5165 N.am      10 UNK        -0.4495 
     23 C          24.8063  -45.0306  -58.0187 C.2       10 UNK         0.4903 
     24 O          23.8020  -44.8572  -58.7116 O.2       10 UNK        -0.4860 
     25 CA         25.2433  -46.4610  -57.6434 C.3       9 UNK         0.0227 
     26 CB         24.7596  -47.5201  -58.6570 C.3       9 UNK        -0.1964 
     27 N          26.6827  -46.6020  -57.3824 N.am      9 UNK        -0.4231 
     28 C          27.6973  -46.4622  -58.2518 C.2       9 UNK         0.5014 
     29 O          27.5679  -46.1096  -59.4241 O.2       9 UNK        -0.5270 
     30 CA         29.0968  -46.8368  -57.7278 C.3       8 UNK         0.0284 
     31 CB         29.7124  -45.6885  -56.9081 C.3       8 UNK        -0.1977 
     32 N          29.0580  -48.0692  -56.9319 N.am      8 UNK        -0.4342 
     33 C          28.8395  -49.2902  -57.4484 C.2       8 UNK         0.5039 
     34 O          28.8086  -49.5269  -58.6561 O.2       8 UNK        -0.5547 
     35 CA         28.6024  -50.4431  -56.4583 C.3       7 UNK         0.0281 
     36 CB         29.9226  -51.1476  -56.1050 C.3       7 UNK        -0.1963 
     37 N          27.9367  -49.9845  -55.2373 N.am      7 UNK        -0.4444 
     38 C          26.6212  -49.7341  -55.1481 C.2       7 UNK         0.5104 
     39 O          25.8202  -49.9524  -56.0561 O.2       7 UNK        -0.5100 
     40 CA         26.1076  -49.1183  -53.8323 C.3       6 UNK         0.0396 
     41 CB         25.5682  -50.2174  -52.9035 C.3       6 UNK        -0.1801 
     42 N          27.1197  -48.3355  -53.1168 N.am      6 UNK        -0.4747 
     43 C          27.6764  -47.2002  -53.5674 C.2       6 UNK         0.5012 
     44 O          27.3479  -46.6601  -54.6226 O.2       6 UNK        -0.5003 
     45 CA         28.8435  -46.6178  -52.7404 C.3       5 UNK         0.0782 
     46 C46        28.3067  -45.6013  -51.7034 C.3       11 UNK        -0.0868 
     47 S47        29.5498  -44.6618  -50.7380 S.3       11 UNK        -0.2515 
     48 C48        31.0659  -44.5860  -51.7653 C.3       11 UNK         0.0199 
     49 N          29.6323  -47.6874  -52.1136 N.am      5 UNK        -0.4607 
     50 C          30.3499  -48.5861  -52.7982 C.2       4 UNK         0.5031 
     51 O          30.5324  -48.5292  -54.0188 O.2       4 UNK        -0.5119 
     52 CA         30.8381  -49.8049  -52.0081 C.3       4 UNK         0.0263 
     53 CB         29.6614  -50.7869  -51.8074 C.3       4 UNK        -0.1967 
     54 N          31.9278  -50.4312  -52.7516 N.am      4 UNK        -0.4237 
     55 C          32.6418  -51.5052  -52.3881 C.2       3 UNK         0.4908 
     56 O          32.4589  -52.1465  -51.3531 O.2       3 UNK        -0.5102 
     57 CA         33.7839  -51.9135  -53.3330 C.3       3 UNK         0.0241 
     58 CB         33.2404  -52.5513  -54.6229 C.3       3 UNK        -0.1971 
     59 N          34.6379  -50.7735  -53.6661 N.am      3 UNK        -0.4139 
     60 C          35.4509  -50.1520  -52.7990 C.2       2 UNK         0.5016 
     61 O          35.6682  -50.5437  -51.6518 O.2       2 UNK        -0.5319 
     62 CA         36.1212  -48.8607  -53.2928 C.3       2 UNK         0.0286 
     63 CB         37.4955  -49.1630  -53.9109 C.3       2 UNK        -0.1963 
     64 N          35.2991  -48.1415  -54.2687 N.am      2 UNK        -0.4790 
     65 C          34.1681  -47.4814  -53.9885 C.2       1 UNK         0.5024 
     66 O          33.6925  -47.3853  -52.8573 O.2       1 UNK        -0.4888 
     67 H67        32.7591  -50.5237  -57.4959 H         1 UNK         0.0892 
     68 H68        31.7320  -49.1562  -57.9559 H         1 UNK         0.0892 
     69 H69        33.1934  -49.5062  -58.8726 H         1 UNK         0.0892 
     70 H70        31.8993  -47.8545  -56.1147 H         1 UNK         0.3107 
     71 H71        32.5698  -46.3275  -54.7527 H         1 UNK         0.0773 
     72 H72        34.7906  -45.0887  -55.0305 H         1 UNK         0.0680 
     73 H73        35.1861  -46.1485  -56.3428 H         1 UNK         0.0680 
     74 H74        33.2551  -42.2573  -56.7312 H         1 UNK         0.0650 
     75 H75        34.2217  -42.9123  -55.4419 H         1 UNK         0.0650 
     76 H76        33.0145  -44.2578  -53.5729 H         1 UNK         0.1397 
     77 H77        28.9424  -43.0966  -52.8688 H         1 UNK         0.1363 
     78 H78        30.9093  -41.9067  -56.4694 H         1 UNK         0.1355 
     79 H79        28.6962  -40.6432  -55.1724 H         1 UNK         0.0707 
     80 H80        27.7188  -41.9007  -54.4412 H         1 UNK         0.0707 
     81 H81        25.8398  -41.8126  -55.8226 H         1 UNK         0.1034 
     82 H82        26.1884  -40.6819  -57.0939 H         1 UNK         0.1034 
     83 H83        24.3128  -42.3847  -57.5232 H         1 UNK         0.0482 
     84 H84        24.2578  -40.6099  -59.0866 H         1 UNK         0.3460 
     85 H85        24.9799  -40.8368  -60.6577 H         1 UNK         0.3460 
     86 H86        26.3731  -44.2696  -56.9942 H         1 UNK         0.2989 
     87 H87        24.7549  -46.6787  -56.6925 H         1 UNK         0.0559 
     88 H88        23.6713  -47.5280  -58.7276 H         1 UNK         0.0848 
     89 H89        25.0702  -48.5224  -58.3617 H         1 UNK         0.0848 
     90 H90        25.1484  -47.3295  -59.6577 H         1 UNK         0.0848 
     91 H91        26.9251  -46.8078  -56.4148 H         1 UNK         0.3144 
     92 H92        29.7424  -47.0132  -58.5912 H         1 UNK         0.0727 
     93 H93        29.0918  -45.3991  -56.0606 H         1 UNK         0.0790 
     94 H94        29.8376  -44.7989  -57.5269 H         1 UNK         0.0790 
     95 H95        30.6974  -45.9491  -56.5245 H         1 UNK         0.0790 
     96 H96        29.0765  -47.9688  -55.9265 H         1 UNK         0.3215 
     97 H97        27.9567  -51.1741  -56.9508 H         1 UNK         0.0863 
     98 H98        30.6526  -50.4605  -55.6807 H         1 UNK         0.0808 
     99 H99        30.3735  -51.5875  -56.9954 H         1 UNK         0.0808 
    100 H100       29.7656  -51.9558  -55.3906 H         1 UNK         0.0808 
    101 H101       28.5290  -49.7602  -54.4516 H         1 UNK         0.3118 
    102 H102       25.2831  -48.4478  -54.0844 H         1 UNK         0.0546 
    103 H103       26.3509  -50.9147  -52.6021 H         1 UNK         0.0828 
    104 H104       24.7891  -50.7985  -53.3994 H         1 UNK         0.0828 
    105 H105       25.1270  -49.7946  -52.0008 H         1 UNK         0.0828 
    106 H106       27.4321  -48.7017  -52.2297 H         1 UNK         0.3005 
    107 H107       29.4827  -46.0963  -53.4549 H         1 UNK         0.1257 
    108 H108       27.6655  -44.8687  -52.1971 H         1 UNK         0.0775 
    109 H109       27.6597  -46.1085  -50.9850 H         1 UNK         0.0775 
    110 H110       31.8469  -44.1348  -51.1517 H         1 UNK         0.0840 
    111 H111       31.4108  -45.5983  -51.9789 H         1 UNK         0.0840 
    112 H112       29.5404  -47.7837  -51.1122 H         1 UNK         0.2987 
    113 H113       31.2213  -49.4710  -51.0420 H         1 UNK         0.0785 
    114 H114       28.8115  -50.3009  -51.3277 H         1 UNK         0.0798 
    115 H115       29.9356  -51.6229  -51.1651 H         1 UNK         0.0798 
    116 H116       29.3136  -51.1999  -52.7549 H         1 UNK         0.0798 
    117 H117       32.1516  -49.9494  -53.6121 H         1 UNK         0.3079 
    118 H118       34.3944  -52.6583  -52.8172 H         1 UNK         0.0794 
    119 H119       34.0494  -52.9403  -55.2415 H         1 UNK         0.0786 
    120 H120       32.6740  -51.8407  -55.2241 H         1 UNK         0.0786 
    121 H121       32.5778  -53.3878  -54.3954 H         1 UNK         0.0786 
    122 H122       34.5553  -50.3856  -54.5941 H         1 UNK         0.3032 
    123 H123       36.2668  -48.2141  -52.4241 H         1 UNK         0.1094 
    124 H124       38.1367  -49.6861  -53.1999 H         1 UNK         0.0794 
    125 H125       37.4108  -49.7912  -54.7986 H         1 UNK         0.0794 
    126 H126       38.0114  -48.2461  -54.1967 H         1 UNK         0.0794 
    127 H127       35.5543  -48.2236  -55.2500 H         1 UNK         0.3016 
@<TRIPOS>BOND
     1    1    2 1    
     2    1   67 1    
     3    1   68 1    
     4    1   69 1    
     5    2    3 2    
     6    2    4 am   BACKBONE|DICT|INTERRES
     7    4    5 1    
     8    4   70 1    
     9    5    6 1    
    10    5   65 1    
    11    5   71 1    
    12    6    7 1    
    13    6   72 1    
    14    6   73 1    
    15    7    8 1    
    16    8    9 1    
    17    8   74 1    
    18    8   75 1    
    19    9   10 ar   
    20    9   14 ar   
    21   10   11 ar   
    22   10   76 1    
    23   11   12 ar   
    24   11   48 1    
    25   12   13 ar   
    26   12   77 1    
    27   13   14 ar   
    28   13   15 1    
    29   14   78 1    
    30   15   16 1    
    31   15   79 1    
    32   15   80 1    
    33   16   17 1    
    34   17   18 1    
    35   17   81 1    
    36   17   82 1    
    37   18   19 1    
    38   18   22 1    
    39   18   83 1    
    40   19   20 am   BACKBONE|DICT|INTERRES
    41   19   21 2    
    42   20   84 1    
    43   20   85 1    
    44   22   23 am   BACKBONE|DICT|INTERRES
    45   22   86 1    
    46   23   24 2    
    47   23   25 1    
    48   25   26 1    
    49   25   27 1    
    50   25   87 1    
    51   26   88 1    
    52   26   89 1    
    53   26   90 1    
    54   27   28 am   BACKBONE|DICT|INTERRES
    55   27   91 1    
    56   28   29 2    
    57   28   30 1    
    58   30   31 1    
    59   30   32 1    
    60   30   92 1    
    61   31   93 1    
    62   31   94 1    
    63   31   95 1    
    64   32   33 am   BACKBONE|DICT|INTERRES
    65   32   96 1    
    66   33   34 2    
    67   33   35 1    
    68   35   36 1    
    69   35   37 1    
    70   35   97 1    
    71   36   98 1    
    72   36   99 1    
    73   36  100 1    
    74   37   38 am   BACKBONE|DICT|INTERRES
    75   37  101 1    
    76   38   39 2    
    77   38   40 1    
    78   40   41 1    
    79   40   42 1    
    80   40  102 1    
    81   41  103 1    
    82   41  104 1    
    83   41  105 1    
    84   42   43 am   BACKBONE|DICT|INTERRES
    85   42  106 1    
    86   43   44 2    
    87   43   45 1    
    88   45   46 1    
    89   45   49 1    
    90   45  107 1    
    91   46   47 1    
    92   46  108 1    
    93   46  109 1    
    94   47   48 1    
    95   48  110 1    
    96   48  111 1    
    97   49   50 am   BACKBONE|DICT|INTERRES
    98   49  112 1    
    99   50   51 2    
   100   50   52 1    
   101   52   53 1    
   102   52   54 1    
   103   52  113 1    
   104   53  114 1    
   105   53  115 1    
   106   53  116 1    
   107   54   55 am   BACKBONE|DICT|INTERRES
   108   54  117 1    
   109   55   56 2    
   110   55   57 1    
   111   57   58 1    
   112   57   59 1    
   113   57  118 1    
   114   58  119 1    
   115   58  120 1    
   116   58  121 1    
   117   59   60 am   BACKBONE|DICT|INTERRES
   118   59  122 1    
   119   60   61 2    
   120   60   62 1    
   121   62   63 1    
   122   62   64 1    
   123   62  123 1    
   124   63  124 1    
   125   63  125 1    
   126   63  126 1    
   127   64   65 am   BACKBONE|DICT|INTERRES
   128   64  127 1    
   129   65   66 2    
@<TRIPOS>SUBSTRUCTURE
     1 UNK         1 GROUP             0       ****    0 ROOT    
