@<TRIPOS>MOLECULE
3R134
127   129    1
SMALL
USER_CHARGES


@<TRIPOS>ATOM
      1 CA         30.5185  -46.0109  -52.7345 C.3       0 UNK        -0.1968 
      2 C          31.8921  -45.8459  -52.1119 C.2       0 UNK         0.4852 
      3 O          32.2131  -46.5362  -51.1449 O.2       0 UNK        -0.5359 
      4 N          32.7117  -44.9406  -52.6614 N.am      1 UNK        -0.4300 
      5 CA         34.0486  -44.5927  -52.1585 C.3       1 UNK         0.0863 
      6 C6         34.6534  -43.3711  -52.8917 C.3       11 UNK        -0.0953 
      7 S7         33.6181  -41.8763  -52.7296 S.3       11 UNK        -0.2369 
      8 C8         33.1221  -41.5583  -54.4521 C.3       11 UNK         0.0226 
      9 C9         32.0644  -42.5402  -54.9347 C.ar      11 UNK        -0.0699 
     10 C10        32.4327  -43.6647  -55.6794 C.ar      11 UNK        -0.0804 
     11 C11        31.4623  -44.5626  -56.1306 C.ar      11 UNK        -0.0871 
     12 C12        30.1142  -44.3158  -55.8589 C.ar      11 UNK        -0.1008 
     13 C13        29.7310  -43.1902  -55.1230 C.ar      11 UNK        -0.0735 
     14 C14        30.7126  -42.3098  -54.6565 C.ar      11 UNK        -0.0945 
     15 C15        28.2559  -42.9147  -54.8647 C.3       11 UNK         0.0169 
     16 S16        27.4611  -44.2616  -53.9325 S.3       11 UNK        -0.2669 
     17 C17        25.6931  -43.8783  -54.1754 C.3       11 UNK        -0.0850 
     18 CA         25.0225  -44.8348  -55.2084 C.3       10 UNK         0.0855 
     19 C          23.4619  -44.7794  -55.2082 C.2       10 UNK         0.5543 
     20 N          22.8274  -44.6407  -54.0509 N.am      10 UNK        -0.7343 
     21 O          22.8056  -44.9163  -56.2397 O.2       10 UNK        -0.5027 
     22 N          25.6171  -44.7143  -56.5510 N.am      10 UNK        -0.4495 
     23 C          25.5230  -43.6733  -57.3874 C.2       10 UNK         0.4903 
     24 O          24.9349  -42.6271  -57.1103 O.2       10 UNK        -0.4860 
     25 CA         26.1950  -43.7879  -58.7735 C.3       9 UNK         0.0227 
     26 CB         27.5792  -43.1080  -58.7700 C.3       9 UNK        -0.1964 
     27 N          26.2724  -45.1398  -59.3552 N.am      9 UNK        -0.4231 
     28 C          26.9590  -46.2014  -58.9120 C.2       9 UNK         0.5014 
     29 O          27.6204  -46.2055  -57.8721 O.2       9 UNK        -0.5270 
     30 CA         26.9027  -47.4642  -59.7814 C.3       8 UNK         0.0284 
     31 CB         28.0930  -47.4934  -60.7539 C.3       8 UNK        -0.1977 
     32 N          26.9799  -48.6289  -58.9057 N.am      8 UNK        -0.4342 
     33 C          25.9757  -49.4776  -58.6496 C.2       8 UNK         0.5039 
     34 O          24.9012  -49.4689  -59.2524 O.2       8 UNK        -0.5547 
     35 CA         26.1875  -50.5069  -57.5194 C.3       7 UNK         0.0281 
     36 CB         26.6108  -51.8658  -58.1002 C.3       7 UNK        -0.1963 
     37 N          27.1766  -50.0815  -56.5261 N.am      7 UNK        -0.4444 
     38 C          27.0507  -49.0148  -55.7245 C.2       7 UNK         0.5104 
     39 O          26.0052  -48.3750  -55.6079 O.2       7 UNK        -0.5100 
     40 CA         28.2945  -48.5699  -54.9294 C.3       6 UNK         0.0396 
     41 CB         28.0914  -48.8640  -53.4344 C.3       6 UNK        -0.1801 
     42 N          29.5801  -49.1463  -55.3545 N.am      6 UNK        -0.4747 
     43 C          30.1376  -49.0753  -56.5767 C.2       6 UNK         0.5012 
     44 O          29.5632  -48.6209  -57.5648 O.2       6 UNK        -0.5003 
     45 CA         31.5815  -49.6015  -56.7409 C.3       5 UNK         0.0782 
     46 C46        32.5934  -48.4703  -57.0622 C.3       11 UNK        -0.0868 
     47 S47        32.5959  -47.0765  -55.8761 S.3       11 UNK        -0.2515 
     48 C48        31.8646  -45.7864  -56.9337 C.3       11 UNK         0.0199 
     49 N          32.0340  -50.4267  -55.6176 N.am      5 UNK        -0.4607 
     50 C          31.6284  -51.6831  -55.3879 C.2       4 UNK         0.5031 
     51 O          30.8101  -52.2721  -56.0944 O.2       4 UNK        -0.5119 
     52 CA         32.2305  -52.4087  -54.1723 C.3       4 UNK         0.0263 
     53 CB         33.3522  -53.3598  -54.6187 C.3       4 UNK        -0.1967 
     54 N          32.7537  -51.5051  -53.1448 N.am      4 UNK        -0.4237 
     55 C          32.0148  -50.7113  -52.3614 C.2       3 UNK         0.4908 
     56 O          30.7898  -50.6246  -52.4408 O.2       3 UNK        -0.5102 
     57 CA         32.7702  -49.8557  -51.3321 C.3       3 UNK         0.0241 
     58 CB         33.4287  -50.7225  -50.2399 C.3       3 UNK        -0.1971 
     59 N          33.7235  -48.9123  -51.9331 N.am      3 UNK        -0.4139 
     60 C          34.8502  -49.1675  -52.6189 C.2       2 UNK         0.5016 
     61 O          35.2723  -50.3061  -52.8297 O.2       2 UNK        -0.5319 
     62 CA         35.6285  -47.9672  -53.1947 C.3       2 UNK         0.0286 
     63 CB         36.0299  -48.2135  -54.6600 C.3       2 UNK        -0.1963 
     64 N          34.8664  -46.7161  -53.1128 N.am      2 UNK        -0.4790 
     65 C          35.0396  -45.7776  -52.1704 C.2       1 UNK         0.5024 
     66 O          35.9201  -45.8309  -51.3110 O.2       1 UNK        -0.4888 
     67 H67        29.8089  -46.3950  -52.0026 H         1 UNK         0.0892 
     68 H68        30.1432  -45.0530  -53.0861 H         1 UNK         0.0892 
     69 H69        30.5582  -46.7004  -53.5771 H         1 UNK         0.0892 
     70 H70        32.3886  -44.3960  -53.4511 H         1 UNK         0.3107 
     71 H71        33.9207  -44.3162  -51.1095 H         1 UNK         0.0773 
     72 H72        34.8265  -43.5975  -53.9445 H         1 UNK         0.0680 
     73 H73        35.6323  -43.1269  -52.4743 H         1 UNK         0.0680 
     74 H74        34.0005  -41.5849  -55.0988 H         1 UNK         0.0650 
     75 H75        32.7303  -40.5423  -54.5188 H         1 UNK         0.0650 
     76 H76        33.4740  -43.8463  -55.9087 H         1 UNK         0.1397 
     77 H77        29.3570  -45.0011  -56.2177 H         1 UNK         0.1363 
     78 H78        30.4263  -41.4356  -54.0876 H         1 UNK         0.1355 
     79 H79        28.1222  -41.9807  -54.3170 H         1 UNK         0.0707 
     80 H80        27.7563  -42.7840  -55.8230 H         1 UNK         0.0707 
     81 H81        25.5650  -42.8348  -54.4674 H         1 UNK         0.1034 
     82 H82        25.2281  -43.9708  -53.1938 H         1 UNK         0.1034 
     83 H83        25.2491  -45.8552  -54.8987 H         1 UNK         0.0482 
     84 H84        23.3281  -44.5676  -53.1799 H         1 UNK         0.3460 
     85 H85        21.8193  -44.6256  -54.0489 H         1 UNK         0.3460 
     86 H86        26.1870  -45.4988  -56.8537 H         1 UNK         0.2989 
     87 H87        25.5618  -43.2209  -59.4577 H         1 UNK         0.0559 
     88 H88        27.5099  -42.0811  -58.4087 H         1 UNK         0.0848 
     89 H89        28.0043  -43.0695  -59.7728 H         1 UNK         0.0848 
     90 H90        28.2888  -43.6290  -58.1274 H         1 UNK         0.0848 
     91 H91        25.7361  -45.2602  -60.2039 H         1 UNK         0.3144 
     92 H92        25.9731  -47.4682  -60.3542 H         1 UNK         0.0727 
     93 H93        28.0778  -48.3924  -61.3702 H         1 UNK         0.0790 
     94 H94        29.0463  -47.4679  -60.2233 H         1 UNK         0.0790 
     95 H95        28.0704  -46.6360  -61.4278 H         1 UNK         0.0790 
     96 H96        27.8123  -48.6575  -58.3184 H         1 UNK         0.3215 
     97 H97        25.2310  -50.6319  -57.0072 H         1 UNK         0.0863 
     98 H98        26.6903  -52.6242  -57.3210 H         1 UNK         0.0808 
     99 H99        27.5730  -51.8045  -58.6104 H         1 UNK         0.0808 
    100 H100       25.8792  -52.2242  -58.8258 H         1 UNK         0.0808 
    101 H101       28.0738  -50.5447  -56.5460 H         1 UNK         0.3118 
    102 H102       28.3771  -47.4883  -55.0568 H         1 UNK         0.0546 
    103 H103       27.9871  -49.9335  -53.2473 H         1 UNK         0.0828 
    104 H104       27.1915  -48.3757  -53.0576 H         1 UNK         0.0828 
    105 H105       28.9269  -48.5050  -52.8354 H         1 UNK         0.0828 
    106 H106       30.1291  -49.5760  -54.6216 H         1 UNK         0.3005 
    107 H107       31.5531  -50.2527  -57.6182 H         1 UNK         0.1257 
    108 H108       33.6033  -48.8798  -57.1108 H         1 UNK         0.0775 
    109 H109       32.4001  -48.0883  -58.0663 H         1 UNK         0.0775 
    110 H110       32.5804  -45.5019  -57.7063 H         1 UNK         0.0840 
    111 H111       30.9943  -46.1909  -57.4545 H         1 UNK         0.0840 
    112 H112       32.7049  -50.0083  -54.9909 H         1 UNK         0.2987 
    113 H113       31.4331  -53.0039  -53.7222 H         1 UNK         0.0785 
    114 H114       33.7316  -53.9460  -53.7814 H         1 UNK         0.0798 
    115 H115       34.1912  -52.8166  -55.0557 H         1 UNK         0.0798 
    116 H116       32.9924  -54.0651  -55.3693 H         1 UNK         0.0798 
    117 H117       33.7647  -51.4376  -53.0475 H         1 UNK         0.3079 
    118 H118       32.0196  -49.2368  -50.8378 H         1 UNK         0.0794 
    119 H119       32.6896  -51.3603  -49.7534 H         1 UNK         0.0786 
    120 H120       33.8800  -50.1025  -49.4653 H         1 UNK         0.0786 
    121 H121       34.2056  -51.3752  -50.6385 H         1 UNK         0.0786 
    122 H122       33.4591  -47.9391  -51.8094 H         1 UNK         0.3032 
    123 H123       36.5476  -47.8854  -52.6101 H         1 UNK         0.1094 
    124 H124       35.1646  -48.4158  -55.2892 H         1 UNK         0.0794 
    125 H125       36.5566  -47.3555  -55.0779 H         1 UNK         0.0794 
    126 H126       36.6977  -49.0720  -54.7440 H         1 UNK         0.0794 
    127 H127       34.1179  -46.5965  -53.7833 H         1 UNK         0.3016 
@<TRIPOS>BOND
     1    1    2 1    
     2    1   67 1    
     3    1   68 1    
     4    1   69 1    
     5    2    3 2    
     6    2    4 am   BACKBONE|DICT|INTERRES
     7    4    5 1    
     8    4   70 1    
     9    5    6 1    
    10    5   65 1    
    11    5   71 1    
    12    6    7 1    
    13    6   72 1    
    14    6   73 1    
    15    7    8 1    
    16    8    9 1    
    17    8   74 1    
    18    8   75 1    
    19    9   10 ar   
    20    9   14 ar   
    21   10   11 ar   
    22   10   76 1    
    23   11   12 ar   
    24   11   48 1    
    25   12   13 ar   
    26   12   77 1    
    27   13   14 ar   
    28   13   15 1    
    29   14   78 1    
    30   15   16 1    
    31   15   79 1    
    32   15   80 1    
    33   16   17 1    
    34   17   18 1    
    35   17   81 1    
    36   17   82 1    
    37   18   19 1    
    38   18   22 1    
    39   18   83 1    
    40   19   20 am   BACKBONE|DICT|INTERRES
    41   19   21 2    
    42   20   84 1    
    43   20   85 1    
    44   22   23 am   BACKBONE|DICT|INTERRES
    45   22   86 1    
    46   23   24 2    
    47   23   25 1    
    48   25   26 1    
    49   25   27 1    
    50   25   87 1    
    51   26   88 1    
    52   26   89 1    
    53   26   90 1    
    54   27   28 am   BACKBONE|DICT|INTERRES
    55   27   91 1    
    56   28   29 2    
    57   28   30 1    
    58   30   31 1    
    59   30   32 1    
    60   30   92 1    
    61   31   93 1    
    62   31   94 1    
    63   31   95 1    
    64   32   33 am   BACKBONE|DICT|INTERRES
    65   32   96 1    
    66   33   34 2    
    67   33   35 1    
    68   35   36 1    
    69   35   37 1    
    70   35   97 1    
    71   36   98 1    
    72   36   99 1    
    73   36  100 1    
    74   37   38 am   BACKBONE|DICT|INTERRES
    75   37  101 1    
    76   38   39 2    
    77   38   40 1    
    78   40   41 1    
    79   40   42 1    
    80   40  102 1    
    81   41  103 1    
    82   41  104 1    
    83   41  105 1    
    84   42   43 am   BACKBONE|DICT|INTERRES
    85   42  106 1    
    86   43   44 2    
    87   43   45 1    
    88   45   46 1    
    89   45   49 1    
    90   45  107 1    
    91   46   47 1    
    92   46  108 1    
    93   46  109 1    
    94   47   48 1    
    95   48  110 1    
    96   48  111 1    
    97   49   50 am   BACKBONE|DICT|INTERRES
    98   49  112 1    
    99   50   51 2    
   100   50   52 1    
   101   52   53 1    
   102   52   54 1    
   103   52  113 1    
   104   53  114 1    
   105   53  115 1    
   106   53  116 1    
   107   54   55 am   BACKBONE|DICT|INTERRES
   108   54  117 1    
   109   55   56 2    
   110   55   57 1    
   111   57   58 1    
   112   57   59 1    
   113   57  118 1    
   114   58  119 1    
   115   58  120 1    
   116   58  121 1    
   117   59   60 am   BACKBONE|DICT|INTERRES
   118   59  122 1    
   119   60   61 2    
   120   60   62 1    
   121   62   63 1    
   122   62   64 1    
   123   62  123 1    
   124   63  124 1    
   125   63  125 1    
   126   63  126 1    
   127   64   65 am   BACKBONE|DICT|INTERRES
   128   64  127 1    
   129   65   66 2    
@<TRIPOS>SUBSTRUCTURE
     1 UNK         1 GROUP             0       ****    0 ROOT    
