@<TRIPOS>MOLECULE
3R134
127   129    1
SMALL
USER_CHARGES


@<TRIPOS>ATOM
      1 CA         37.7846  -42.8199  -52.1628 C.3       0 UNK        -0.1968 
      2 C          37.4778  -44.1370  -52.8602 C.2       0 UNK         0.4852 
      3 O          38.4007  -44.8279  -53.2943 O.2       0 UNK        -0.5359 
      4 N          36.1890  -44.4867  -52.9720 N.am      1 UNK        -0.4300 
      5 CA         35.7048  -45.7147  -53.6186 C.3       1 UNK         0.0863 
      6 C6         34.1879  -45.6558  -53.9251 C.3       11 UNK        -0.0953 
      7 S7         33.7102  -44.2150  -54.9384 S.3       11 UNK        -0.2369 
      8 C8         32.5616  -43.3393  -53.8283 C.3       11 UNK         0.0226 
      9 C9         31.2122  -44.0394  -53.7482 C.ar      11 UNK        -0.0699 
     10 C10        30.9278  -44.9143  -52.6951 C.ar      11 UNK        -0.0804 
     11 C11        29.6970  -45.5729  -52.6313 C.ar      11 UNK        -0.0871 
     12 C12        28.7368  -45.3336  -53.6195 C.ar      11 UNK        -0.1008 
     13 C13        29.0008  -44.4438  -54.6650 C.ar      11 UNK        -0.0735 
     14 C14        30.2422  -43.8040  -54.7275 C.ar      11 UNK        -0.0945 
     15 C15        27.9467  -44.1840  -55.7290 C.3       11 UNK         0.0169 
     16 S16        26.5919  -43.1475  -55.0895 S.3       11 UNK        -0.2669 
     17 C17        25.5217  -43.0821  -56.5639 C.3       11 UNK        -0.0850 
     18 CA         24.6952  -44.3922  -56.7496 C.3       10 UNK         0.0855 
     19 C          23.2261  -44.3349  -56.2363 C.2       10 UNK         0.5543 
     20 N          22.4229  -45.3564  -56.5069 N.am      10 UNK        -0.7343 
     21 O          22.8082  -43.3811  -55.5839 O.2       10 UNK        -0.5027 
     22 N          24.8427  -44.9340  -58.1049 N.am      10 UNK        -0.4495 
     23 C          24.3378  -44.4287  -59.2377 C.2       10 UNK         0.4903 
     24 O          23.6379  -43.4177  -59.2959 O.2       10 UNK        -0.4860 
     25 CA         24.6947  -45.1759  -60.5331 C.3       9 UNK         0.0227 
     26 CB         26.0355  -44.6666  -61.0879 C.3       9 UNK        -0.1964 
     27 N          24.7864  -46.6188  -60.2993 N.am      9 UNK        -0.4231 
     28 C          23.7835  -47.4873  -60.4892 C.2       9 UNK         0.5014 
     29 O          22.7065  -47.1925  -61.0094 O.2       9 UNK        -0.5270 
     30 CA         24.0092  -48.9326  -60.0034 C.3       8 UNK         0.0284 
     31 CB         24.6209  -49.7888  -61.1242 C.3       8 UNK        -0.1977 
     32 N          24.8507  -49.0252  -58.8057 N.am      8 UNK        -0.4342 
     33 C          24.5368  -48.5131  -57.6071 C.2       8 UNK         0.5039 
     34 O          23.4714  -47.9462  -57.3618 O.2       8 UNK        -0.5547 
     35 CA         25.6045  -48.6028  -56.5016 C.3       7 UNK         0.0281 
     36 CB         25.3747  -49.8484  -55.6318 C.3       7 UNK        -0.1963 
     37 N          26.9992  -48.5879  -56.9631 N.am      7 UNK        -0.4444 
     38 C          27.5734  -47.6529  -57.7319 C.2       7 UNK         0.5104 
     39 O          26.9444  -46.7491  -58.2824 O.2       7 UNK        -0.5100 
     40 CA         29.1049  -47.7260  -57.8821 C.3       6 UNK         0.0396 
     41 CB         29.6645  -46.5684  -58.7298 C.3       6 UNK        -0.1801 
     42 N          29.7750  -47.7214  -56.5780 N.am      6 UNK        -0.4747 
     43 C          29.9103  -48.7850  -55.7754 C.2       6 UNK         0.5012 
     44 O          29.4641  -49.9024  -56.0480 O.2       6 UNK        -0.5003 
     45 CA         30.6191  -48.5598  -54.4273 C.3       5 UNK         0.0782 
     46 C46        29.6164  -48.7308  -53.2602 C.3       11 UNK        -0.0868 
     47 S47        30.3051  -48.1157  -51.6892 S.3       11 UNK        -0.2515 
     48 C48        29.4082  -46.5410  -51.4920 C.3       11 UNK         0.0199 
     49 N          31.7610  -49.4664  -54.2923 N.am      5 UNK        -0.4607 
     50 C          32.8602  -49.4494  -55.0540 C.2       4 UNK         0.5031 
     51 O          33.0650  -48.6114  -55.9333 O.2       4 UNK        -0.5119 
     52 CA         33.8999  -50.5510  -54.7770 C.3       4 UNK         0.0263 
     53 CB         35.1412  -50.4412  -55.6829 C.3       4 UNK        -0.1967 
     54 N          34.3260  -50.5602  -53.3741 N.am      4 UNK        -0.4237 
     55 C          33.6790  -51.1912  -52.3821 C.2       3 UNK         0.4908 
     56 O          32.6081  -51.7777  -52.5466 O.2       3 UNK        -0.5102 
     57 CA         34.3164  -51.1956  -50.9796 C.3       3 UNK         0.0241 
     58 CB         34.9376  -52.5705  -50.6812 C.3       3 UNK        -0.1971 
     59 N          35.3392  -50.1640  -50.7966 N.am      3 UNK        -0.4139 
     60 C          35.0765  -48.8759  -50.5441 C.2       2 UNK         0.5016 
     61 O          33.9392  -48.4285  -50.3902 O.2       2 UNK        -0.5319 
     62 CA         36.2713  -47.9040  -50.4700 C.3       2 UNK         0.0286 
     63 CB         37.6603  -48.5751  -50.5865 C.3       2 UNK        -0.1963 
     64 N          36.1262  -46.8333  -51.4629 N.am      2 UNK        -0.4790 
     65 C          36.0108  -46.9828  -52.7932 C.2       1 UNK         0.5024 
     66 O          36.1094  -48.0675  -53.3689 O.2       1 UNK        -0.4888 
     67 H67        38.4086  -42.9957  -51.2869 H         1 UNK         0.0892 
     68 H68        38.3236  -42.1553  -52.8375 H         1 UNK         0.0892 
     69 H69        36.8788  -42.3090  -51.8368 H         1 UNK         0.0892 
     70 H70        35.4742  -43.8662  -52.6209 H         1 UNK         0.3107 
     71 H71        36.2343  -45.8196  -54.5683 H         1 UNK         0.0773 
     72 H72        33.8779  -46.5485  -54.4695 H         1 UNK         0.0680 
     73 H73        33.6182  -45.6613  -52.9961 H         1 UNK         0.0680 
     74 H74        32.4226  -42.3233  -54.2007 H         1 UNK         0.0650 
     75 H75        33.0067  -43.2405  -52.8372 H         1 UNK         0.0650 
     76 H76        31.6659  -45.0956  -51.9260 H         1 UNK         0.1397 
     77 H77        27.7771  -45.8304  -53.5735 H         1 UNK         0.1363 
     78 H78        30.4568  -43.1211  -55.5384 H         1 UNK         0.1355 
     79 H79        28.3906  -43.7025  -56.6017 H         1 UNK         0.0707 
     80 H80        27.5457  -45.1371  -56.0735 H         1 UNK         0.0707 
     81 H81        26.1642  -42.8969  -57.4264 H         1 UNK         0.1034 
     82 H82        24.8811  -42.2007  -56.5044 H         1 UNK         0.1034 
     83 H83        25.1458  -45.1643  -56.1257 H         1 UNK         0.0482 
     84 H84        21.4700  -45.3352  -56.1813 H         1 UNK         0.3460 
     85 H85        22.7779  -46.1849  -56.9776 H         1 UNK         0.3460 
     86 H86        25.4684  -45.7315  -58.1780 H         1 UNK         0.2989 
     87 H87        23.9193  -44.9636  -61.2720 H         1 UNK         0.0559 
     88 H88        26.8569  -44.8416  -60.3914 H         1 UNK         0.0848 
     89 H89        25.9949  -43.5938  -61.2811 H         1 UNK         0.0848 
     90 H90        26.2855  -45.1557  -62.0295 H         1 UNK         0.0848 
     91 H91        25.6223  -46.9427  -59.8254 H         1 UNK         0.3144 
     92 H92        23.0312  -49.3482  -59.7512 H         1 UNK         0.0727 
     93 H93        24.7026  -50.8343  -60.8265 H         1 UNK         0.0790 
     94 H94        25.6153  -49.4389  -61.4045 H         1 UNK         0.0790 
     95 H95        24.0002  -49.7574  -62.0209 H         1 UNK         0.0790 
     96 H96        25.7480  -49.4770  -58.9079 H         1 UNK         0.3215 
     97 H97        25.4741  -47.7225  -55.8687 H         1 UNK         0.0863 
     98 H98        25.5366  -50.7686  -56.1946 H         1 UNK         0.0808 
     99 H99        24.3533  -49.8753  -55.2488 H         1 UNK         0.0808 
    100 H100       26.0418  -49.8600  -54.7695 H         1 UNK         0.0808 
    101 H101       27.6183  -49.2907  -56.5706 H         1 UNK         0.3118 
    102 H102       29.3365  -48.6594  -58.3994 H         1 UNK         0.0546 
    103 H103       29.4587  -45.5978  -58.2767 H         1 UNK         0.0828 
    104 H104       29.2208  -46.5626  -59.7264 H         1 UNK         0.0828 
    105 H105       30.7433  -46.6565  -58.8591 H         1 UNK         0.0828 
    106 H106       30.1453  -46.8319  -56.2734 H         1 UNK         0.3005 
    107 H107       31.0070  -47.5384  -54.4096 H         1 UNK         0.1257 
    108 H108       29.3495  -49.7818  -53.1330 H         1 UNK         0.0775 
    109 H109       28.6780  -48.2118  -53.4635 H         1 UNK         0.0775 
    110 H110       28.3384  -46.7417  -51.4135 H         1 UNK         0.0840 
    111 H111       29.7009  -46.0841  -50.5455 H         1 UNK         0.0840 
    112 H112       31.6800  -50.1961  -53.5939 H         1 UNK         0.2987 
    113 H113       33.4182  -51.5039  -55.0074 H         1 UNK         0.0785 
    114 H114       35.8501  -51.2452  -55.4851 H         1 UNK         0.0798 
    115 H115       34.8623  -50.5086  -56.7352 H         1 UNK         0.0798 
    116 H116       35.6618  -49.4932  -55.5462 H         1 UNK         0.0798 
    117 H117       35.1452  -50.0048  -53.1561 H         1 UNK         0.3079 
    118 H118       33.5133  -51.0241  -50.2591 H         1 UNK         0.0794 
    119 H119       35.3316  -52.6163  -49.6657 H         1 UNK         0.0786 
    120 H120       35.7509  -52.8054  -51.3692 H         1 UNK         0.0786 
    121 H121       34.1940  -53.3636  -50.7734 H         1 UNK         0.0786 
    122 H122       36.3015  -50.4453  -50.9187 H         1 UNK         0.3032 
    123 H123       36.2139  -47.4326  -49.4873 H         1 UNK         0.1094 
    124 H124       37.8045  -49.0769  -51.5438 H         1 UNK         0.0794 
    125 H125       38.4557  -47.8366  -50.4852 H         1 UNK         0.0794 
    126 H126       37.8117  -49.3111  -49.7956 H         1 UNK         0.0794 
    127 H127       36.0043  -45.9034  -51.0877 H         1 UNK         0.3016 
@<TRIPOS>BOND
     1    1    2 1    
     2    1   67 1    
     3    1   68 1    
     4    1   69 1    
     5    2    3 2    
     6    2    4 am   BACKBONE|DICT|INTERRES
     7    4    5 1    
     8    4   70 1    
     9    5    6 1    
    10    5   65 1    
    11    5   71 1    
    12    6    7 1    
    13    6   72 1    
    14    6   73 1    
    15    7    8 1    
    16    8    9 1    
    17    8   74 1    
    18    8   75 1    
    19    9   10 ar   
    20    9   14 ar   
    21   10   11 ar   
    22   10   76 1    
    23   11   12 ar   
    24   11   48 1    
    25   12   13 ar   
    26   12   77 1    
    27   13   14 ar   
    28   13   15 1    
    29   14   78 1    
    30   15   16 1    
    31   15   79 1    
    32   15   80 1    
    33   16   17 1    
    34   17   18 1    
    35   17   81 1    
    36   17   82 1    
    37   18   19 1    
    38   18   22 1    
    39   18   83 1    
    40   19   20 am   BACKBONE|DICT|INTERRES
    41   19   21 2    
    42   20   84 1    
    43   20   85 1    
    44   22   23 am   BACKBONE|DICT|INTERRES
    45   22   86 1    
    46   23   24 2    
    47   23   25 1    
    48   25   26 1    
    49   25   27 1    
    50   25   87 1    
    51   26   88 1    
    52   26   89 1    
    53   26   90 1    
    54   27   28 am   BACKBONE|DICT|INTERRES
    55   27   91 1    
    56   28   29 2    
    57   28   30 1    
    58   30   31 1    
    59   30   32 1    
    60   30   92 1    
    61   31   93 1    
    62   31   94 1    
    63   31   95 1    
    64   32   33 am   BACKBONE|DICT|INTERRES
    65   32   96 1    
    66   33   34 2    
    67   33   35 1    
    68   35   36 1    
    69   35   37 1    
    70   35   97 1    
    71   36   98 1    
    72   36   99 1    
    73   36  100 1    
    74   37   38 am   BACKBONE|DICT|INTERRES
    75   37  101 1    
    76   38   39 2    
    77   38   40 1    
    78   40   41 1    
    79   40   42 1    
    80   40  102 1    
    81   41  103 1    
    82   41  104 1    
    83   41  105 1    
    84   42   43 am   BACKBONE|DICT|INTERRES
    85   42  106 1    
    86   43   44 2    
    87   43   45 1    
    88   45   46 1    
    89   45   49 1    
    90   45  107 1    
    91   46   47 1    
    92   46  108 1    
    93   46  109 1    
    94   47   48 1    
    95   48  110 1    
    96   48  111 1    
    97   49   50 am   BACKBONE|DICT|INTERRES
    98   49  112 1    
    99   50   51 2    
   100   50   52 1    
   101   52   53 1    
   102   52   54 1    
   103   52  113 1    
   104   53  114 1    
   105   53  115 1    
   106   53  116 1    
   107   54   55 am   BACKBONE|DICT|INTERRES
   108   54  117 1    
   109   55   56 2    
   110   55   57 1    
   111   57   58 1    
   112   57   59 1    
   113   57  118 1    
   114   58  119 1    
   115   58  120 1    
   116   58  121 1    
   117   59   60 am   BACKBONE|DICT|INTERRES
   118   59  122 1    
   119   60   61 2    
   120   60   62 1    
   121   62   63 1    
   122   62   64 1    
   123   62  123 1    
   124   63  124 1    
   125   63  125 1    
   126   63  126 1    
   127   64   65 am   BACKBONE|DICT|INTERRES
   128   64  127 1    
   129   65   66 2    
@<TRIPOS>SUBSTRUCTURE
     1 UNK         1 GROUP             0       ****    0 ROOT    
