@<TRIPOS>MOLECULE
3R134
127   129    1
SMALL
USER_CHARGES


@<TRIPOS>ATOM
      1 CA         30.0184  -45.8148  -51.5062 C.3       0 UNK        -0.1968 
      2 C          31.4049  -45.7260  -50.8914 C.2       0 UNK         0.4852 
      3 O          31.6932  -46.4265  -49.9203 O.2       0 UNK        -0.5359 
      4 N          32.2617  -44.8589  -51.4470 N.am      1 UNK        -0.4300 
      5 CA         33.6124  -44.5806  -50.9387 C.3       1 UNK         0.0863 
      6 C6         34.1867  -43.2261  -51.4380 C.3       11 UNK        -0.0953 
      7 S7         33.0080  -41.8310  -51.3169 S.3       11 UNK        -0.2369 
      8 C8         32.6810  -41.4315  -53.0684 C.3       11 UNK         0.0226 
      9 C9         32.0015  -42.5821  -53.7972 C.ar      11 UNK        -0.0699 
     10 C10        32.7705  -43.5060  -54.5097 C.ar      11 UNK        -0.0804 
     11 C11        32.1722  -44.6175  -55.1028 C.ar      11 UNK        -0.0871 
     12 C12        30.7859  -44.7758  -55.0280 C.ar      11 UNK        -0.1008 
     13 C13        29.9984  -43.8346  -54.3608 C.ar      11 UNK        -0.0735 
     14 C14        30.6129  -42.7423  -53.7380 C.ar      11 UNK        -0.0945 
     15 C15        28.4900  -44.0199  -54.2817 C.3       11 UNK         0.0169 
     16 S16        27.6463  -43.2903  -55.7175 S.3       11 UNK        -0.2669 
     17 C17        27.8805  -44.5825  -56.9898 C.3       11 UNK        -0.0850 
     18 CA         26.8436  -44.4584  -58.1383 C.3       10 UNK         0.0855 
     19 C          27.1584  -45.4294  -59.3146 C.2       10 UNK         0.5543 
     20 N          26.2400  -46.2868  -59.7475 N.am      10 UNK        -0.7343 
     21 O          28.2534  -45.3827  -59.8688 O.2       10 UNK        -0.5027 
     22 N          25.4615  -44.5562  -57.6420 N.am      10 UNK        -0.4495 
     23 C          24.4060  -43.9524  -58.2049 C.2       10 UNK         0.4903 
     24 O          24.4951  -43.1772  -59.1587 O.2       10 UNK        -0.4860 
     25 CA         23.0164  -44.2622  -57.6037 C.3       9 UNK         0.0227 
     26 CB         21.8733  -44.0612  -58.6221 C.3       9 UNK        -0.1964 
     27 N          22.9200  -45.5880  -56.9763 N.am      9 UNK        -0.4231 
     28 C          23.1444  -46.7729  -57.5618 C.2       9 UNK         0.5014 
     29 O          23.4404  -46.9192  -58.7508 O.2       9 UNK        -0.5270 
     30 CA         23.0592  -48.0062  -56.6470 C.3       8 UNK         0.0284 
     31 CB         21.7920  -48.8215  -56.9515 C.3       8 UNK        -0.1977 
     32 N          24.2385  -48.8643  -56.7873 N.am      8 UNK        -0.4342 
     33 C          25.4992  -48.4775  -56.5510 C.2       8 UNK         0.5039 
     34 O          25.8059  -47.3523  -56.1425 O.2       8 UNK        -0.5547 
     35 CA         26.5899  -49.5213  -56.8471 C.3       7 UNK         0.0281 
     36 CB         26.8039  -49.6786  -58.3618 C.3       7 UNK        -0.1963 
     37 N          27.8598  -49.1308  -56.2426 N.am      7 UNK        -0.4444 
     38 C          28.2021  -49.2965  -54.9636 C.2       7 UNK         0.5104 
     39 O          27.5270  -49.9492  -54.1647 O.2       7 UNK        -0.5100 
     40 CA         29.5083  -48.6083  -54.4998 C.3       6 UNK         0.0396 
     41 CB         29.8812  -49.0035  -53.0585 C.3       6 UNK        -0.1801 
     42 N          30.6774  -48.8422  -55.3599 N.am      6 UNK        -0.4747 
     43 C          30.8721  -48.4250  -56.6223 C.2       6 UNK         0.5012 
     44 O          30.0264  -47.7885  -57.2527 O.2       6 UNK        -0.5003 
     45 CA         32.2013  -48.8108  -57.3195 C.3       5 UNK         0.0782 
     46 C46        33.1715  -47.6430  -57.7122 C.3       11 UNK        -0.0868 
     47 S47        32.6171  -45.9126  -57.5159 S.3       11 UNK        -0.2515 
     48 C48        33.0310  -45.6800  -55.7637 C.3       11 UNK         0.0199 
     49 N          32.9225  -49.8330  -56.5487 N.am      5 UNK        -0.4607 
     50 C          33.1603  -51.0818  -56.9724 C.2       4 UNK         0.5031 
     51 O          32.7557  -51.5265  -58.0470 O.2       4 UNK        -0.5119 
     52 CA         34.0101  -51.9966  -56.0696 C.3       4 UNK         0.0263 
     53 CB         35.4563  -52.0590  -56.5883 C.3       4 UNK        -0.1967 
     54 N          34.0280  -51.5956  -54.6614 N.am      4 UNK        -0.4237 
     55 C          32.9918  -51.7120  -53.8200 C.2       3 UNK         0.4908 
     56 O          31.9064  -52.2001  -54.1340 O.2       3 UNK        -0.5102 
     57 CA         33.1884  -51.1738  -52.3904 C.3       3 UNK         0.0241 
     58 CB         33.6138  -52.3107  -51.4470 C.3       3 UNK        -0.1971 
     59 N          34.1392  -50.0597  -52.2660 N.am      3 UNK        -0.4139 
     60 C          34.0400  -48.8855  -52.9035 C.2       2 UNK         0.5016 
     61 O          33.1986  -48.6453  -53.7719 O.2       2 UNK        -0.5319 
     62 CA         35.0519  -47.7992  -52.5322 C.3       2 UNK         0.0286 
     63 CB         36.0140  -47.5201  -53.6994 C.3       2 UNK        -0.1963 
     64 N          34.3024  -46.5896  -52.2039 N.am      2 UNK        -0.4790 
     65 C          34.6060  -45.7316  -51.2193 C.2       1 UNK         0.5024 
     66 O          35.6251  -45.8220  -50.5331 O.2       1 UNK        -0.4888 
     67 H67        30.0832  -46.1115  -52.5511 H         1 UNK         0.0892 
     68 H68        29.4075  -46.5490  -50.9816 H         1 UNK         0.0892 
     69 H69        29.5134  -44.8511  -51.4472 H         1 UNK         0.0892 
     70 H70        31.9689  -44.2947  -52.2350 H         1 UNK         0.3107 
     71 H71        33.5303  -44.5065  -49.8519 H         1 UNK         0.0773 
     72 H72        35.0597  -42.9613  -50.8387 H         1 UNK         0.0680 
     73 H73        34.5598  -43.3059  -52.4577 H         1 UNK         0.0680 
     74 H74        33.6181  -41.1652  -53.5599 H         1 UNK         0.0650 
     75 H75        32.0496  -40.5430  -53.1152 H         1 UNK         0.0650 
     76 H76        33.8425  -43.3804  -54.5726 H         1 UNK         0.1397 
     77 H77        30.3215  -45.6336  -55.4936 H         1 UNK         0.1363 
     78 H78        30.0126  -42.0234  -53.1968 H         1 UNK         0.1355 
     79 H79        28.1068  -43.5456  -53.3769 H         1 UNK         0.0707 
     80 H80        28.2360  -45.0777  -54.1974 H         1 UNK         0.0707 
     81 H81        28.8976  -44.4925  -57.3770 H         1 UNK         0.1034 
     82 H82        27.8166  -45.5704  -56.5298 H         1 UNK         0.1034 
     83 H83        26.9722  -43.4597  -58.5601 H         1 UNK         0.0482 
     84 H84        25.3238  -46.3376  -59.3162 H         1 UNK         0.3460 
     85 H85        26.4604  -46.8881  -60.5243 H         1 UNK         0.3460 
     86 H86        25.3137  -45.2217  -56.8938 H         1 UNK         0.2989 
     87 H87        22.8718  -43.5375  -56.8012 H         1 UNK         0.0559 
     88 H88        21.8476  -43.0337  -58.9871 H         1 UNK         0.0848 
     89 H89        21.9871  -44.7110  -59.4905 H         1 UNK         0.0848 
     90 H90        20.9010  -44.2669  -58.1746 H         1 UNK         0.0848 
     91 H91        22.7079  -45.5827  -55.9876 H         1 UNK         0.3144 
     92 H92        23.0158  -47.6773  -55.6065 H         1 UNK         0.0727 
     93 H93        21.6932  -49.6720  -56.2766 H         1 UNK         0.0790 
     94 H94        21.7925  -49.2009  -57.9744 H         1 UNK         0.0790 
     95 H95        20.8968  -48.2094  -56.8325 H         1 UNK         0.0790 
     96 H96        24.0773  -49.7910  -57.1541 H         1 UNK         0.3215 
     97 H97        26.2746  -50.4804  -56.4304 H         1 UNK         0.0863 
     98 H98        25.8786  -49.9504  -58.8712 H         1 UNK         0.0808 
     99 H99        27.1663  -48.7547  -58.8130 H         1 UNK         0.0808 
    100 H100       27.5323  -50.4604  -58.5776 H         1 UNK         0.0808 
    101 H101       28.4786  -48.5507  -56.8062 H         1 UNK         0.3118 
    102 H102       29.3066  -47.5363  -54.5065 H         1 UNK         0.0546 
    103 H103       29.0774  -48.7603  -52.3626 H         1 UNK         0.0828 
    104 H104       30.7722  -48.4803  -52.7138 H         1 UNK         0.0828 
    105 H105       30.0688  -50.0745  -52.9769 H         1 UNK         0.0828 
    106 H106       31.4418  -49.3334  -54.9159 H         1 UNK         0.3005 
    107 H107       31.8606  -49.2489  -58.2607 H         1 UNK         0.1257 
    108 H108       33.4525  -47.7644  -58.7593 H         1 UNK         0.0775 
    109 H109       34.1163  -47.7328  -57.1722 H         1 UNK         0.0775 
    110 H110       32.8774  -46.6129  -55.2248 H         1 UNK         0.0840 
    111 H111       34.0928  -45.4447  -55.6787 H         1 UNK         0.0840 
    112 H112       33.2694  -49.5430  -55.6406 H         1 UNK         0.2987 
    113 H113       33.5823  -52.9998  -56.1306 H         1 UNK         0.0785 
    114 H114       35.4846  -52.3879  -57.6282 H         1 UNK         0.0798 
    115 H115       36.0552  -52.7648  -56.0123 H         1 UNK         0.0798 
    116 H116       35.9450  -51.0849  -56.5418 H         1 UNK         0.0798 
    117 H117       34.8822  -51.1855  -54.3132 H         1 UNK         0.3079 
    118 H118       32.2184  -50.8032  -52.0540 H         1 UNK         0.0794 
    119 H119       32.9112  -53.1441  -51.4968 H         1 UNK         0.0786 
    120 H120       33.6418  -51.9775  -50.4093 H         1 UNK         0.0786 
    121 H121       34.6000  -52.7004  -51.7027 H         1 UNK         0.0786 
    122 H122       34.8728  -50.1774  -51.5816 H         1 UNK         0.3032 
    123 H123       35.6279  -48.1295  -51.6645 H         1 UNK         0.1094 
    124 H124       36.7229  -46.7313  -53.4473 H         1 UNK         0.0794 
    125 H125       36.5939  -48.4097  -53.9485 H         1 UNK         0.0794 
    126 H126       35.4816  -47.2153  -54.6007 H         1 UNK         0.0794 
    127 H127       33.4227  -46.4856  -52.6917 H         1 UNK         0.3016 
@<TRIPOS>BOND
     1    1    2 1    
     2    1   67 1    
     3    1   68 1    
     4    1   69 1    
     5    2    3 2    
     6    2    4 am   BACKBONE|DICT|INTERRES
     7    4    5 1    
     8    4   70 1    
     9    5    6 1    
    10    5   65 1    
    11    5   71 1    
    12    6    7 1    
    13    6   72 1    
    14    6   73 1    
    15    7    8 1    
    16    8    9 1    
    17    8   74 1    
    18    8   75 1    
    19    9   10 ar   
    20    9   14 ar   
    21   10   11 ar   
    22   10   76 1    
    23   11   12 ar   
    24   11   48 1    
    25   12   13 ar   
    26   12   77 1    
    27   13   14 ar   
    28   13   15 1    
    29   14   78 1    
    30   15   16 1    
    31   15   79 1    
    32   15   80 1    
    33   16   17 1    
    34   17   18 1    
    35   17   81 1    
    36   17   82 1    
    37   18   19 1    
    38   18   22 1    
    39   18   83 1    
    40   19   20 am   BACKBONE|DICT|INTERRES
    41   19   21 2    
    42   20   84 1    
    43   20   85 1    
    44   22   23 am   BACKBONE|DICT|INTERRES
    45   22   86 1    
    46   23   24 2    
    47   23   25 1    
    48   25   26 1    
    49   25   27 1    
    50   25   87 1    
    51   26   88 1    
    52   26   89 1    
    53   26   90 1    
    54   27   28 am   BACKBONE|DICT|INTERRES
    55   27   91 1    
    56   28   29 2    
    57   28   30 1    
    58   30   31 1    
    59   30   32 1    
    60   30   92 1    
    61   31   93 1    
    62   31   94 1    
    63   31   95 1    
    64   32   33 am   BACKBONE|DICT|INTERRES
    65   32   96 1    
    66   33   34 2    
    67   33   35 1    
    68   35   36 1    
    69   35   37 1    
    70   35   97 1    
    71   36   98 1    
    72   36   99 1    
    73   36  100 1    
    74   37   38 am   BACKBONE|DICT|INTERRES
    75   37  101 1    
    76   38   39 2    
    77   38   40 1    
    78   40   41 1    
    79   40   42 1    
    80   40  102 1    
    81   41  103 1    
    82   41  104 1    
    83   41  105 1    
    84   42   43 am   BACKBONE|DICT|INTERRES
    85   42  106 1    
    86   43   44 2    
    87   43   45 1    
    88   45   46 1    
    89   45   49 1    
    90   45  107 1    
    91   46   47 1    
    92   46  108 1    
    93   46  109 1    
    94   47   48 1    
    95   48  110 1    
    96   48  111 1    
    97   49   50 am   BACKBONE|DICT|INTERRES
    98   49  112 1    
    99   50   51 2    
   100   50   52 1    
   101   52   53 1    
   102   52   54 1    
   103   52  113 1    
   104   53  114 1    
   105   53  115 1    
   106   53  116 1    
   107   54   55 am   BACKBONE|DICT|INTERRES
   108   54  117 1    
   109   55   56 2    
   110   55   57 1    
   111   57   58 1    
   112   57   59 1    
   113   57  118 1    
   114   58  119 1    
   115   58  120 1    
   116   58  121 1    
   117   59   60 am   BACKBONE|DICT|INTERRES
   118   59  122 1    
   119   60   61 2    
   120   60   62 1    
   121   62   63 1    
   122   62   64 1    
   123   62  123 1    
   124   63  124 1    
   125   63  125 1    
   126   63  126 1    
   127   64   65 am   BACKBONE|DICT|INTERRES
   128   64  127 1    
   129   65   66 2    
@<TRIPOS>SUBSTRUCTURE
     1 UNK         1 GROUP             0       ****    0 ROOT    
