@<TRIPOS>MOLECULE
3R134
127   129    1
SMALL
USER_CHARGES


@<TRIPOS>ATOM
      1 CA         31.6969  -46.7121  -54.2791 C.3       0 UNK        -0.1968 
      2 C          33.1259  -46.5701  -53.7979 C.2       0 UNK         0.4852 
      3 O          33.4941  -47.1662  -52.7849 O.2       0 UNK        -0.5359 
      4 N          33.9315  -45.7864  -54.5228 N.am      1 UNK        -0.4300 
      5 CA         35.3412  -45.5235  -54.2453 C.3       1 UNK         0.0863 
      6 C6         35.8985  -44.4041  -55.1615 C.3       11 UNK        -0.0953 
      7 S7         35.1252  -42.7383  -55.0999 S.3       11 UNK        -0.2369 
      8 C8         33.9846  -42.6664  -53.6648 C.3       11 UNK         0.0226 
      9 C9         32.5127  -42.9997  -53.9407 C.ar      11 UNK        -0.0699 
     10 C10        31.6655  -43.2102  -52.8454 C.ar      11 UNK        -0.0804 
     11 C11        30.3048  -43.4814  -53.0265 C.ar      11 UNK        -0.0871 
     12 C12        29.7918  -43.5661  -54.3210 C.ar      11 UNK        -0.1008 
     13 C13        30.6187  -43.3585  -55.4277 C.ar      11 UNK        -0.0735 
     14 C14        31.9730  -43.0658  -55.2343 C.ar      11 UNK        -0.0945 
     15 C15        30.0375  -43.4626  -56.8281 C.3       11 UNK         0.0169 
     16 S16        28.9307  -42.0622  -57.1881 S.3       11 UNK        -0.2669 
     17 C17        27.5876  -42.9271  -58.0668 C.3       11 UNK        -0.0850 
     18 CA         26.5335  -43.5370  -57.0897 C.3       10 UNK         0.0855 
     19 C          25.3252  -42.5956  -56.7965 C.2       10 UNK         0.5543 
     20 N          24.1281  -43.1202  -56.5639 N.am      10 UNK        -0.7343 
     21 O          25.4732  -41.3770  -56.7505 O.2       10 UNK        -0.5027 
     22 N          26.1757  -44.9164  -57.4547 N.am      10 UNK        -0.4495 
     23 C          25.6058  -45.3021  -58.6041 C.2       10 UNK         0.4903 
     24 O          25.2497  -44.5252  -59.4918 O.2       10 UNK        -0.4860 
     25 CA         25.4363  -46.8218  -58.7881 C.3       9 UNK         0.0227 
     26 CB         24.9952  -47.2177  -60.2129 C.3       9 UNK        -0.1964 
     27 N          26.6365  -47.5647  -58.3862 N.am      9 UNK        -0.4231 
     28 C          27.8794  -47.4604  -58.8856 C.2       9 UNK         0.5014 
     29 O          28.1876  -46.7216  -59.8216 O.2       9 UNK        -0.5270 
     30 CA         28.9814  -48.3107  -58.2209 C.3       8 UNK         0.0284 
     31 CB         29.9231  -47.4186  -57.3954 C.3       8 UNK        -0.1977 
     32 N          28.4638  -49.3732  -57.3554 N.am      8 UNK        -0.4342 
     33 C          27.8409  -50.4812  -57.7791 C.2       8 UNK         0.5039 
     34 O          27.7104  -50.7886  -58.9642 O.2       8 UNK        -0.5547 
     35 CA         27.2155  -51.3669  -56.6905 C.3       7 UNK         0.0281 
     36 CB         28.2613  -52.3262  -56.0989 C.3       7 UNK        -0.1963 
     37 N          26.6040  -50.5687  -55.6216 N.am      7 UNK        -0.4444 
     38 C          25.4664  -49.8698  -55.7544 C.2       7 UNK         0.5104 
     39 O          24.7953  -49.8453  -56.7852 O.2       7 UNK        -0.5100 
     40 CA         25.0136  -49.0311  -54.5468 C.3       6 UNK         0.0396 
     41 CB         24.1829  -49.8869  -53.5779 C.3       6 UNK        -0.1801 
     42 N          26.1345  -48.4241  -53.8266 N.am      6 UNK        -0.4747 
     43 C          26.8727  -47.4033  -54.2868 C.2       6 UNK         0.5012 
     44 O          26.6583  -46.8257  -55.3538 O.2       6 UNK        -0.5003 
     45 CA         28.0865  -46.9900  -53.4315 C.3       5 UNK         0.0782 
     46 C46        27.7087  -45.8766  -52.4237 C.3       11 UNK        -0.0868 
     47 S47        29.1134  -45.3724  -51.3638 S.3       11 UNK        -0.2515 
     48 C48        29.3809  -43.6318  -51.8253 C.3       11 UNK         0.0199 
     49 N          28.7398  -48.1315  -52.7734 N.am      5 UNK        -0.4607 
     50 C          29.3317  -49.1460  -53.4116 C.2       4 UNK         0.5031 
     51 O          29.2734  -49.3166  -54.6316 O.2       4 UNK        -0.5119 
     52 CA         30.1403  -50.1242  -52.5589 C.3       4 UNK         0.0263 
     53 CB         29.3373  -51.4035  -52.2736 C.3       4 UNK        -0.1967 
     54 N          31.3498  -50.4489  -53.3097 N.am      4 UNK        -0.4237 
     55 C          32.5897  -50.4869  -52.8088 C.2       3 UNK         0.4908 
     56 O          32.8419  -50.3913  -51.6057 O.2       3 UNK        -0.5102 
     57 CA         33.7513  -50.6552  -53.8041 C.3       3 UNK         0.0241 
     58 CB         33.3625  -50.4705  -55.2886 C.3       3 UNK        -0.1971 
     59 N          34.8105  -49.7122  -53.4477 N.am      3 UNK        -0.4139 
     60 C          36.1254  -49.9207  -53.5949 C.2       2 UNK         0.5016 
     61 O          36.5993  -50.9520  -54.0765 O.2       2 UNK        -0.5319 
     62 CA         37.0699  -48.7949  -53.1140 C.3       2 UNK         0.0286 
     63 CB         38.4749  -48.8704  -53.7512 C.3       2 UNK        -0.1963 
     64 N          36.4923  -47.4503  -53.2579 N.am      2 UNK        -0.4790 
     65 C          36.1406  -46.8360  -54.3984 C.2       1 UNK         0.5024 
     66 O          36.3605  -47.2848  -55.5251 O.2       1 UNK        -0.4888 
     67 H67        31.4767  -46.0506  -55.1152 H         1 UNK         0.0892 
     68 H68        31.5136  -47.7348  -54.5987 H         1 UNK         0.0892 
     69 H69        31.0219  -46.4677  -53.4617 H         1 UNK         0.0892 
     70 H70        33.5666  -45.3277  -55.3441 H         1 UNK         0.3107 
     71 H71        35.4332  -45.1970  -53.2085 H         1 UNK         0.0773 
     72 H72        36.9581  -44.2578  -54.9434 H         1 UNK         0.0680 
     73 H73        35.8604  -44.7246  -56.2046 H         1 UNK         0.0680 
     74 H74        34.0124  -41.6419  -53.2918 H         1 UNK         0.0650 
     75 H75        34.3663  -43.2804  -52.8503 H         1 UNK         0.0650 
     76 H76        32.0650  -43.1433  -51.8425 H         1 UNK         0.1397 
     77 H77        28.7420  -43.7731  -54.4706 H         1 UNK         0.1363 
     78 H78        32.5969  -42.8881  -56.0982 H         1 UNK         0.1355 
     79 H79        30.8255  -43.5001  -57.5818 H         1 UNK         0.0707 
     80 H80        29.4926  -44.4043  -56.9058 H         1 UNK         0.0707 
     81 H81        28.0419  -43.7002  -58.6894 H         1 UNK         0.1034 
     82 H82        27.1205  -42.2391  -58.7742 H         1 UNK         0.1034 
     83 H83        27.0075  -43.6594  -56.1159 H         1 UNK         0.0482 
     84 H84        23.9967  -44.1184  -56.5901 H         1 UNK         0.3460 
     85 H85        23.3500  -42.5109  -56.3662 H         1 UNK         0.3460 
     86 H86        26.3946  -45.6273  -56.7595 H         1 UNK         0.2989 
     87 H87        24.6458  -47.1274  -58.1010 H         1 UNK         0.0559 
     88 H88        25.7204  -46.9036  -60.9644 H         1 UNK         0.0848 
     89 H89        24.0413  -46.7552  -60.4692 H         1 UNK         0.0848 
     90 H90        24.8661  -48.2964  -60.3014 H         1 UNK         0.0848 
     91 H91        26.5108  -48.1883  -57.6011 H         1 UNK         0.3144 
     92 H92        29.5611  -48.7755  -59.0210 H         1 UNK         0.0727 
     93 H93        30.7500  -47.9961  -56.9823 H         1 UNK         0.0790 
     94 H94        29.3985  -46.9405  -56.5677 H         1 UNK         0.0790 
     95 H95        30.3560  -46.6288  -58.0107 H         1 UNK         0.0790 
     96 H96        28.6016  -49.2542  -56.3531 H         1 UNK         0.3215 
     97 H97        26.4313  -51.9667  -57.1580 H         1 UNK         0.0863 
     98 H98        29.0983  -51.7918  -55.6496 H         1 UNK         0.0808 
     99 H99        28.6724  -52.9741  -56.8742 H         1 UNK         0.0808 
    100 H100       27.8238  -52.9720  -55.3375 H         1 UNK         0.0808 
    101 H101       27.1225  -50.4867  -54.7595 H         1 UNK         0.3118 
    102 H102       24.3747  -48.2280  -54.9211 H         1 UNK         0.0546 
    103 H103       23.7909  -49.2879  -52.7558 H         1 UNK         0.0828 
    104 H104       24.7677  -50.7025  -53.1507 H         1 UNK         0.0828 
    105 H105       23.3273  -50.3324  -54.0876 H         1 UNK         0.0828 
    106 H106       26.3864  -48.8321  -52.9375 H         1 UNK         0.3005 
    107 H107       28.8071  -46.5669  -54.1329 H         1 UNK         0.1257 
    108 H108       26.9083  -46.2177  -51.7643 H         1 UNK         0.0775 
    109 H109       27.3117  -45.0060  -52.9485 H         1 UNK         0.0775 
    110 H110       28.4256  -43.1406  -52.0162 H         1 UNK         0.0840 
    111 H111       29.8099  -43.1137  -50.9662 H         1 UNK         0.0840 
    112 H112       28.8407  -48.0548  -51.7711 H         1 UNK         0.2987 
    113 H113       30.3981  -49.6385  -51.6150 H         1 UNK         0.0785 
    114 H114       29.9138  -52.1004  -51.6651 H         1 UNK         0.0798 
    115 H115       28.4209  -51.1779  -51.7268 H         1 UNK         0.0798 
    116 H116       29.0542  -51.9200  -53.1907 H         1 UNK         0.0798 
    117 H117       31.2206  -50.4839  -54.3125 H         1 UNK         0.3079 
    118 H118       34.1196  -51.6743  -53.6684 H         1 UNK         0.0794 
    119 H119       32.6191  -51.2035  -55.6043 H         1 UNK         0.0786 
    120 H120       34.2286  -50.6062  -55.9369 H         1 UNK         0.0786 
    121 H121       32.9633  -49.4753  -55.4854 H         1 UNK         0.0786 
    122 H122       34.4902  -48.8452  -53.0206 H         1 UNK         0.3032 
    123 H123       37.1925  -48.9581  -52.0419 H         1 UNK         0.1094 
    124 H124       38.4333  -48.8044  -54.8387 H         1 UNK         0.0794 
    125 H125       39.1189  -48.0688  -53.3898 H         1 UNK         0.0794 
    126 H126       38.9651  -49.8129  -53.5043 H         1 UNK         0.0794 
    127 H127       36.2159  -47.0096  -52.3901 H         1 UNK         0.3016 
@<TRIPOS>BOND
     1    1    2 1    
     2    1   67 1    
     3    1   68 1    
     4    1   69 1    
     5    2    3 2    
     6    2    4 am   BACKBONE|DICT|INTERRES
     7    4    5 1    
     8    4   70 1    
     9    5    6 1    
    10    5   65 1    
    11    5   71 1    
    12    6    7 1    
    13    6   72 1    
    14    6   73 1    
    15    7    8 1    
    16    8    9 1    
    17    8   74 1    
    18    8   75 1    
    19    9   10 ar   
    20    9   14 ar   
    21   10   11 ar   
    22   10   76 1    
    23   11   12 ar   
    24   11   48 1    
    25   12   13 ar   
    26   12   77 1    
    27   13   14 ar   
    28   13   15 1    
    29   14   78 1    
    30   15   16 1    
    31   15   79 1    
    32   15   80 1    
    33   16   17 1    
    34   17   18 1    
    35   17   81 1    
    36   17   82 1    
    37   18   19 1    
    38   18   22 1    
    39   18   83 1    
    40   19   20 am   BACKBONE|DICT|INTERRES
    41   19   21 2    
    42   20   84 1    
    43   20   85 1    
    44   22   23 am   BACKBONE|DICT|INTERRES
    45   22   86 1    
    46   23   24 2    
    47   23   25 1    
    48   25   26 1    
    49   25   27 1    
    50   25   87 1    
    51   26   88 1    
    52   26   89 1    
    53   26   90 1    
    54   27   28 am   BACKBONE|DICT|INTERRES
    55   27   91 1    
    56   28   29 2    
    57   28   30 1    
    58   30   31 1    
    59   30   32 1    
    60   30   92 1    
    61   31   93 1    
    62   31   94 1    
    63   31   95 1    
    64   32   33 am   BACKBONE|DICT|INTERRES
    65   32   96 1    
    66   33   34 2    
    67   33   35 1    
    68   35   36 1    
    69   35   37 1    
    70   35   97 1    
    71   36   98 1    
    72   36   99 1    
    73   36  100 1    
    74   37   38 am   BACKBONE|DICT|INTERRES
    75   37  101 1    
    76   38   39 2    
    77   38   40 1    
    78   40   41 1    
    79   40   42 1    
    80   40  102 1    
    81   41  103 1    
    82   41  104 1    
    83   41  105 1    
    84   42   43 am   BACKBONE|DICT|INTERRES
    85   42  106 1    
    86   43   44 2    
    87   43   45 1    
    88   45   46 1    
    89   45   49 1    
    90   45  107 1    
    91   46   47 1    
    92   46  108 1    
    93   46  109 1    
    94   47   48 1    
    95   48  110 1    
    96   48  111 1    
    97   49   50 am   BACKBONE|DICT|INTERRES
    98   49  112 1    
    99   50   51 2    
   100   50   52 1    
   101   52   53 1    
   102   52   54 1    
   103   52  113 1    
   104   53  114 1    
   105   53  115 1    
   106   53  116 1    
   107   54   55 am   BACKBONE|DICT|INTERRES
   108   54  117 1    
   109   55   56 2    
   110   55   57 1    
   111   57   58 1    
   112   57   59 1    
   113   57  118 1    
   114   58  119 1    
   115   58  120 1    
   116   58  121 1    
   117   59   60 am   BACKBONE|DICT|INTERRES
   118   59  122 1    
   119   60   61 2    
   120   60   62 1    
   121   62   63 1    
   122   62   64 1    
   123   62  123 1    
   124   63  124 1    
   125   63  125 1    
   126   63  126 1    
   127   64   65 am   BACKBONE|DICT|INTERRES
   128   64  127 1    
   129   65   66 2    
@<TRIPOS>SUBSTRUCTURE
     1 UNK         1 GROUP             0       ****    0 ROOT    
