@<TRIPOS>MOLECULE
3R134
127   129    1
SMALL
USER_CHARGES


@<TRIPOS>ATOM
      1 CA         37.4685  -47.0118  -50.4615 C.3       0 UNK        -0.1968 
      2 C          37.3281  -46.5284  -51.8975 C.2       0 UNK         0.4852 
      3 O          38.2018  -46.8023  -52.7217 O.2       0 UNK        -0.5359 
      4 N          36.2381  -45.8092  -52.2002 N.am      1 UNK        -0.4300 
      5 CA         35.9145  -45.2918  -53.5364 C.3       1 UNK         0.0863 
      6 C6         34.7880  -44.2288  -53.4594 C.3       11 UNK        -0.0953 
      7 S7         34.8163  -43.0753  -54.8684 S.3       11 UNK        -0.2369 
      8 C8         33.5891  -41.8421  -54.3358 C.3       11 UNK         0.0226 
      9 C9         32.1652  -42.3772  -54.4062 C.ar      11 UNK        -0.0699 
     10 C10        31.4508  -42.6576  -53.2358 C.ar      11 UNK        -0.0804 
     11 C11        30.1235  -43.0972  -53.3009 C.ar      11 UNK        -0.0871 
     12 C12        29.5224  -43.2756  -54.5494 C.ar      11 UNK        -0.1008 
     13 C13        30.2295  -43.0094  -55.7245 C.ar      11 UNK        -0.0735 
     14 C14        31.5485  -42.5558  -55.6484 C.ar      11 UNK        -0.0945 
     15 C15        29.5566  -43.2141  -57.0699 C.3       11 UNK         0.0169 
     16 S16        28.3028  -41.9311  -57.3804 S.3       11 UNK        -0.2669 
     17 C17        27.0948  -42.9194  -58.3169 C.3       11 UNK        -0.0850 
     18 CA         26.1479  -43.7268  -57.3720 C.3       10 UNK         0.0855 
     19 C          24.7807  -43.0341  -57.0942 C.2       10 UNK         0.5543 
     20 N          24.7776  -41.7249  -56.8827 N.am      10 UNK        -0.7343 
     21 O          23.7297  -43.6690  -57.0226 O.2       10 UNK        -0.5027 
     22 N          26.0423  -45.1329  -57.7790 N.am      10 UNK        -0.4495 
     23 C          25.5592  -45.5819  -58.9448 C.2       10 UNK         0.4903 
     24 O          25.0974  -44.8541  -59.8261 O.2       10 UNK        -0.4860 
     25 CA         25.6448  -47.1041  -59.1667 C.3       9 UNK         0.0227 
     26 CB         25.3991  -47.5193  -60.6327 C.3       9 UNK        -0.1964 
     27 N          26.9004  -47.6771  -58.6649 N.am      9 UNK        -0.4231 
     28 C          28.1547  -47.3751  -59.0425 C.2       9 UNK         0.5014 
     29 O          28.4272  -46.5687  -59.9329 O.2       9 UNK        -0.5270 
     30 CA         29.3153  -48.0666  -58.2949 C.3       8 UNK         0.0284 
     31 CB         30.1043  -47.0399  -57.4655 C.3       8 UNK        -0.1977 
     32 N          28.8894  -49.1559  -57.4121 N.am      8 UNK        -0.4342 
     33 C          28.4319  -50.3474  -57.8204 C.2       8 UNK         0.5039 
     34 O          28.4302  -50.7181  -58.9943 O.2       8 UNK        -0.5547 
     35 CA         27.8095  -51.2469  -56.7397 C.3       7 UNK         0.0281 
     36 CB         28.8776  -52.1336  -56.0780 C.3       7 UNK        -0.1963 
     37 N          27.0887  -50.4698  -55.7224 N.am      7 UNK        -0.4444 
     38 C          25.9401  -49.8123  -55.9473 C.2       7 UNK         0.5104 
     39 O          25.3483  -49.8259  -57.0253 O.2       7 UNK        -0.5100 
     40 CA         25.3764  -48.9599  -54.7974 C.3       6 UNK         0.0396 
     41 CB         24.5062  -49.8191  -53.8671 C.3       6 UNK        -0.1801 
     42 N          26.4244  -48.3003  -54.0169 N.am      6 UNK        -0.4747 
     43 C          27.1823  -47.2811  -54.4521 C.2       6 UNK         0.5012 
     44 O          27.0291  -46.7321  -55.5443 O.2       6 UNK        -0.5003 
     45 CA         28.3390  -46.8423  -53.5266 C.3       5 UNK         0.0782 
     46 C46        27.8800  -45.7232  -52.5618 C.3       11 UNK        -0.0868 
     47 S47        29.2587  -45.0820  -51.5468 S.3       11 UNK        -0.2515 
     48 C48        29.3247  -43.3261  -52.0246 C.3       11 UNK         0.0199 
     49 N          28.9145  -47.9824  -52.7984 N.am      5 UNK        -0.4607 
     50 C          29.5472  -49.0081  -53.3753 C.2       4 UNK         0.5031 
     51 O          29.7332  -49.1008  -54.5920 O.2       4 UNK        -0.5119 
     52 CA         29.9856  -50.1489  -52.4538 C.3       4 UNK         0.0263 
     53 CB         28.8319  -51.1456  -52.2282 C.3       4 UNK        -0.1967 
     54 N          31.1239  -50.8030  -53.0836 N.am      4 UNK        -0.4237 
     55 C          31.9847  -51.6472  -52.5038 C.2       3 UNK         0.4908 
     56 O          31.8563  -52.0930  -51.3629 O.2       3 UNK        -0.5102 
     57 CA         33.2281  -52.0267  -53.3317 C.3       3 UNK         0.0241 
     58 CB         32.9353  -53.2541  -54.2105 C.3       3 UNK        -0.1971 
     59 N          33.7151  -50.9250  -54.1731 N.am      3 UNK        -0.4139 
     60 C          34.1527  -49.7479  -53.7022 C.2       2 UNK         0.5016 
     61 O          34.2850  -49.4952  -52.4998 O.2       2 UNK        -0.5319 
     62 CA         34.4548  -48.6590  -54.7412 C.3       2 UNK         0.0286 
     63 CB         33.2042  -48.3147  -55.5763 C.3       2 UNK        -0.1963 
     64 N          34.9090  -47.4740  -54.0220 N.am      2 UNK        -0.4790 
     65 C          35.5564  -46.4205  -54.5305 C.2       1 UNK         0.5024 
     66 O          35.8776  -46.3237  -55.7159 O.2       1 UNK        -0.4888 
     67 H67        36.6430  -46.6757  -49.8343 H         1 UNK         0.0892 
     68 H68        37.4927  -48.1009  -50.4342 H         1 UNK         0.0892 
     69 H69        38.3963  -46.6387  -50.0285 H         1 UNK         0.0892 
     70 H70        35.5620  -45.6114  -51.4762 H         1 UNK         0.3107 
     71 H71        36.8193  -44.8074  -53.9108 H         1 UNK         0.0773 
     72 H72        33.8017  -44.6920  -53.3854 H         1 UNK         0.0680 
     73 H73        34.9068  -43.6266  -52.5570 H         1 UNK         0.0680 
     74 H74        33.6721  -40.9668  -54.9816 H         1 UNK         0.0650 
     75 H75        33.8300  -41.4994  -53.3284 H         1 UNK         0.0650 
     76 H76        31.9209  -42.5111  -52.2729 H         1 UNK         0.1397 
     77 H77        28.4950  -43.6027  -54.6154 H         1 UNK         0.1363 
     78 H78        32.0979  -42.3379  -56.5542 H         1 UNK         0.1355 
     79 H79        29.0923  -44.2011  -57.0769 H         1 UNK         0.0707 
     80 H80        30.2854  -43.2111  -57.8819 H         1 UNK         0.0707 
     81 H81        26.5341  -42.2680  -58.9901 H         1 UNK         0.1034 
     82 H82        27.6549  -43.5832  -58.9787 H         1 UNK         0.1034 
     83 H83        26.6117  -43.7998  -56.3877 H         1 UNK         0.0482 
     84 H84        23.9063  -41.2583  -56.6844 H         1 UNK         0.3460 
     85 H85        25.6378  -41.1985  -56.9113 H         1 UNK         0.3460 
     86 H86        26.3724  -45.8065  -57.0926 H         1 UNK         0.2989 
     87 H87        24.8483  -47.5416  -58.5635 H         1 UNK         0.0559 
     88 H88        24.4113  -47.2016  -60.9687 H         1 UNK         0.0848 
     89 H89        25.4478  -48.6018  -60.7509 H         1 UNK         0.0848 
     90 H90        26.1304  -47.0743  -61.3081 H         1 UNK         0.0848 
     91 H91        26.7881  -48.3585  -57.9259 H         1 UNK         0.3144 
     92 H92        29.9844  -48.4833  -59.0505 H         1 UNK         0.0727 
     93 H93        29.4875  -46.5882  -56.6891 H         1 UNK         0.0790 
     94 H94        30.4838  -46.2332  -58.0940 H         1 UNK         0.0790 
     95 H95        30.9621  -47.5021  -56.9818 H         1 UNK         0.0790 
     96 H96        28.9424  -48.9809  -56.4125 H         1 UNK         0.3215 
     97 H97        27.0885  -51.9021  -57.2342 H         1 UNK         0.0863 
     98 H98        28.4345  -52.8170  -55.3538 H         1 UNK         0.0808 
     99 H99        29.6401  -51.5466  -55.5675 H         1 UNK         0.0808 
    100 H100       29.3883  -52.7442  -56.8238 H         1 UNK         0.0808 
    101 H101       27.5337  -50.3687  -54.8234 H         1 UNK         0.3118 
    102 H102       24.7425  -48.1863  -55.2366 H         1 UNK         0.0546 
    103 H103       25.0841  -50.6048  -53.3787 H         1 UNK         0.0828 
    104 H104       23.7031  -50.3043  -54.4238 H         1 UNK         0.0828 
    105 H105       24.0383  -49.2138  -53.0906 H         1 UNK         0.0828 
    106 H106       26.6123  -48.6733  -53.0977 H         1 UNK         0.3005 
    107 H107       29.1207  -46.4353  -54.1726 H         1 UNK         0.1257 
    108 H108       27.1108  -46.0968  -51.8831 H         1 UNK         0.0775 
    109 H109       27.4138  -44.9045  -53.1110 H         1 UNK         0.0775 
    110 H110       28.3146  -42.9282  -52.1336 H         1 UNK         0.0840 
    111 H111       29.7738  -42.7657  -51.2031 H         1 UNK         0.0840 
    112 H112       28.8167  -47.9614  -51.7933 H         1 UNK         0.2987 
    113 H113       30.3063  -49.7281  -51.4985 H         1 UNK         0.0785 
    114 H114       27.9584  -50.6499  -51.8031 H         1 UNK         0.0798 
    115 H115       29.1182  -51.9343  -51.5325 H         1 UNK         0.0798 
    116 H116       28.5206  -51.6234  -53.1566 H         1 UNK         0.0798 
    117 H117       31.3061  -50.4749  -54.0238 H         1 UNK         0.3079 
    118 H118       34.0239  -52.2868  -52.6304 H         1 UNK         0.0794 
    119 H119       33.8280  -53.5845  -54.7418 H         1 UNK         0.0786 
    120 H120       32.1596  -53.0487  -54.9495 H         1 UNK         0.0786 
    121 H121       32.5925  -54.0938  -53.6041 H         1 UNK         0.0786 
    122 H122       33.6577  -51.0597  -55.1725 H         1 UNK         0.3032 
    123 H123       35.2567  -49.0148  -55.3919 H         1 UNK         0.1094 
    124 H124       32.3813  -47.9782  -54.9439 H         1 UNK         0.0794 
    125 H125       33.4118  -47.5238  -56.2971 H         1 UNK         0.0794 
    126 H126       32.8492  -49.1737  -56.1462 H         1 UNK         0.0794 
    127 H127       34.7496  -47.5277  -53.0225 H         1 UNK         0.3016 
@<TRIPOS>BOND
     1    1    2 1    
     2    1   67 1    
     3    1   68 1    
     4    1   69 1    
     5    2    3 2    
     6    2    4 am   BACKBONE|DICT|INTERRES
     7    4    5 1    
     8    4   70 1    
     9    5    6 1    
    10    5   65 1    
    11    5   71 1    
    12    6    7 1    
    13    6   72 1    
    14    6   73 1    
    15    7    8 1    
    16    8    9 1    
    17    8   74 1    
    18    8   75 1    
    19    9   10 ar   
    20    9   14 ar   
    21   10   11 ar   
    22   10   76 1    
    23   11   12 ar   
    24   11   48 1    
    25   12   13 ar   
    26   12   77 1    
    27   13   14 ar   
    28   13   15 1    
    29   14   78 1    
    30   15   16 1    
    31   15   79 1    
    32   15   80 1    
    33   16   17 1    
    34   17   18 1    
    35   17   81 1    
    36   17   82 1    
    37   18   19 1    
    38   18   22 1    
    39   18   83 1    
    40   19   20 am   BACKBONE|DICT|INTERRES
    41   19   21 2    
    42   20   84 1    
    43   20   85 1    
    44   22   23 am   BACKBONE|DICT|INTERRES
    45   22   86 1    
    46   23   24 2    
    47   23   25 1    
    48   25   26 1    
    49   25   27 1    
    50   25   87 1    
    51   26   88 1    
    52   26   89 1    
    53   26   90 1    
    54   27   28 am   BACKBONE|DICT|INTERRES
    55   27   91 1    
    56   28   29 2    
    57   28   30 1    
    58   30   31 1    
    59   30   32 1    
    60   30   92 1    
    61   31   93 1    
    62   31   94 1    
    63   31   95 1    
    64   32   33 am   BACKBONE|DICT|INTERRES
    65   32   96 1    
    66   33   34 2    
    67   33   35 1    
    68   35   36 1    
    69   35   37 1    
    70   35   97 1    
    71   36   98 1    
    72   36   99 1    
    73   36  100 1    
    74   37   38 am   BACKBONE|DICT|INTERRES
    75   37  101 1    
    76   38   39 2    
    77   38   40 1    
    78   40   41 1    
    79   40   42 1    
    80   40  102 1    
    81   41  103 1    
    82   41  104 1    
    83   41  105 1    
    84   42   43 am   BACKBONE|DICT|INTERRES
    85   42  106 1    
    86   43   44 2    
    87   43   45 1    
    88   45   46 1    
    89   45   49 1    
    90   45  107 1    
    91   46   47 1    
    92   46  108 1    
    93   46  109 1    
    94   47   48 1    
    95   48  110 1    
    96   48  111 1    
    97   49   50 am   BACKBONE|DICT|INTERRES
    98   49  112 1    
    99   50   51 2    
   100   50   52 1    
   101   52   53 1    
   102   52   54 1    
   103   52  113 1    
   104   53  114 1    
   105   53  115 1    
   106   53  116 1    
   107   54   55 am   BACKBONE|DICT|INTERRES
   108   54  117 1    
   109   55   56 2    
   110   55   57 1    
   111   57   58 1    
   112   57   59 1    
   113   57  118 1    
   114   58  119 1    
   115   58  120 1    
   116   58  121 1    
   117   59   60 am   BACKBONE|DICT|INTERRES
   118   59  122 1    
   119   60   61 2    
   120   60   62 1    
   121   62   63 1    
   122   62   64 1    
   123   62  123 1    
   124   63  124 1    
   125   63  125 1    
   126   63  126 1    
   127   64   65 am   BACKBONE|DICT|INTERRES
   128   64  127 1    
   129   65   66 2    
@<TRIPOS>SUBSTRUCTURE
     1 UNK         1 GROUP             0       ****    0 ROOT    
