@<TRIPOS>MOLECULE
3R134
127   129    1
SMALL
USER_CHARGES


@<TRIPOS>ATOM
      1 CA         36.1628  -42.6192  -57.7862 C.3       0 UNK        -0.1968 
      2 C          35.0807  -43.5938  -57.3458 C.2       0 UNK         0.4852 
      3 O          34.0525  -43.7102  -58.0152 O.2       0 UNK        -0.5359 
      4 N          35.2971  -44.2892  -56.2222 N.am      1 UNK        -0.4300 
      5 CA         34.3939  -45.3186  -55.7072 C.3       1 UNK         0.0863 
      6 C6         34.5036  -45.4663  -54.1640 C.3       11 UNK        -0.0953 
      7 S7         32.8584  -45.5670  -53.3924 S.3       11 UNK        -0.2369 
      8 C8         32.5830  -43.8065  -53.0207 C.3       11 UNK         0.0226 
      9 C9         31.1192  -43.5406  -52.7186 C.ar      11 UNK        -0.0699 
     10 C10        30.6354  -43.6348  -51.4119 C.ar      11 UNK        -0.0804 
     11 C11        29.2758  -43.4440  -51.1450 C.ar      11 UNK        -0.0871 
     12 C12        28.3996  -43.1505  -52.1945 C.ar      11 UNK        -0.1008 
     13 C13        28.8754  -43.0561  -53.5051 C.ar      11 UNK        -0.0735 
     14 C14        30.2398  -43.2274  -53.7568 C.ar      11 UNK        -0.0945 
     15 C15        27.9132  -42.8027  -54.6558 C.3       11 UNK         0.0169 
     16 S16        27.0612  -44.3268  -55.1894 S.3       11 UNK        -0.2669 
     17 C17        28.4544  -45.3776  -55.7248 C.3       11 UNK        -0.0850 
     18 CA         28.9557  -45.0134  -57.1519 C.3       10 UNK         0.0855 
     19 C          30.5062  -45.0608  -57.2241 C.2       10 UNK         0.5543 
     20 N          31.1572  -43.9509  -57.5456 N.am      10 UNK        -0.7343 
     21 O          31.1120  -46.0955  -56.9627 O.2       10 UNK        -0.5027 
     22 N          28.3531  -45.8769  -58.1814 N.am      10 UNK        -0.4495 
     23 C          28.4971  -45.6815  -59.5018 C.2       10 UNK         0.4903 
     24 O          28.9768  -44.6561  -59.9866 O.2       10 UNK        -0.4860 
     25 CA         28.0767  -46.8096  -60.4622 C.3       9 UNK         0.0227 
     26 CB         29.3238  -47.4658  -61.0800 C.3       9 UNK        -0.1964 
     27 N          27.2678  -47.8523  -59.8319 N.am      9 UNK        -0.4231 
     28 C          25.9386  -47.8051  -59.6749 C.2       9 UNK         0.5014 
     29 O          25.2322  -46.8728  -60.0607 O.2       9 UNK        -0.5270 
     30 CA         25.2854  -49.0077  -58.9667 C.3       8 UNK         0.0284 
     31 CB         24.7645  -50.0216  -59.9988 C.3       8 UNK        -0.1977 
     32 N          26.1755  -49.6914  -58.0187 N.am      8 UNK        -0.4342 
     33 C          26.6436  -49.1314  -56.8960 C.2       8 UNK         0.5039 
     34 O          26.3973  -47.9718  -56.5646 O.2       8 UNK        -0.5547 
     35 CA         27.5854  -49.9836  -56.0305 C.3       7 UNK         0.0281 
     36 CB         29.0532  -49.6425  -56.3420 C.3       7 UNK        -0.1963 
     37 N          27.3243  -49.7822  -54.6022 N.am      7 UNK        -0.4444 
     38 C          26.2119  -50.2059  -53.9808 C.2       7 UNK         0.5104 
     39 O          25.3296  -50.8554  -54.5452 O.2       7 UNK        -0.5100 
     40 CA         26.0446  -49.8990  -52.4794 C.3       6 UNK         0.0396 
     41 CB         26.1756  -51.1890  -51.6523 C.3       6 UNK        -0.1801 
     42 N          26.9929  -48.9144  -51.9597 N.am      6 UNK        -0.4747 
     43 C          26.9180  -47.5875  -52.1378 C.2       6 UNK         0.5012 
     44 O          25.9990  -47.0309  -52.7373 O.2       6 UNK        -0.5003 
     45 CA         28.0523  -46.7397  -51.5165 C.3       5 UNK         0.0782 
     46 C46        27.5499  -46.1186  -50.1821 C.3       11 UNK        -0.0868 
     47 S47        28.8419  -45.3196  -49.1665 S.3       11 UNK        -0.2515 
     48 C48        28.7545  -43.5901  -49.7249 C.3       11 UNK         0.0199 
     49 N          29.3180  -47.4705  -51.3462 N.am      5 UNK        -0.4607 
     50 C          30.0134  -48.0889  -52.3087 C.2       4 UNK         0.5031 
     51 O          29.6407  -48.1705  -53.4825 O.2       4 UNK        -0.5119 
     52 CA         31.3083  -48.7849  -51.8691 C.3       4 UNK         0.0263 
     53 CB         31.0277  -49.8491  -50.7844 C.3       4 UNK        -0.1967 
     54 N          31.9092  -49.4079  -53.0443 N.am      4 UNK        -0.4237 
     55 C          33.1407  -49.9228  -53.1315 C.2       3 UNK         0.4908 
     56 O          33.9725  -49.8899  -52.2246 O.2       3 UNK        -0.5102 
     57 CA         33.5033  -50.5789  -54.4660 C.3       3 UNK         0.0241 
     58 CB         32.6529  -51.8415  -54.7200 C.3       3 UNK        -0.1971 
     59 N          33.3595  -49.6067  -55.5470 N.am      3 UNK        -0.4139 
     60 C          33.8764  -49.7305  -56.7756 C.2       2 UNK         0.5016 
     61 O          34.4903  -50.7224  -57.1712 O.2       2 UNK        -0.5319 
     62 CA         33.6942  -48.5332  -57.7227 C.3       2 UNK         0.0286 
     63 CB         32.4285  -48.7075  -58.5780 C.3       2 UNK        -0.1963 
     64 N          33.6236  -47.2536  -57.0117 N.am      2 UNK        -0.4790 
     65 C          34.6696  -46.6445  -56.4399 C.2       1 UNK         0.5024 
     66 O          35.8193  -47.0899  -56.4687 O.2       1 UNK        -0.4888 
     67 H67        35.7569  -41.6096  -57.8429 H         1 UNK         0.0892 
     68 H68        37.0069  -42.6072  -57.0970 H         1 UNK         0.0892 
     69 H69        36.5343  -42.8934  -58.7732 H         1 UNK         0.0892 
     70 H70        36.1764  -44.1907  -55.7348 H         1 UNK         0.3107 
     71 H71        33.3779  -45.0028  -55.9510 H         1 UNK         0.0773 
     72 H72        35.0317  -44.6189  -53.7232 H         1 UNK         0.0680 
     73 H73        35.0806  -46.3449  -53.8676 H         1 UNK         0.0680 
     74 H74        32.8991  -43.1993  -53.8708 H         1 UNK         0.0650 
     75 H75        33.2080  -43.5106  -52.1768 H         1 UNK         0.0650 
     76 H76        31.3110  -43.8850  -50.6051 H         1 UNK         0.1397 
     77 H77        27.3432  -43.0239  -51.9994 H         1 UNK         0.1363 
     78 H78        30.6135  -43.1610  -54.7693 H         1 UNK         0.1355 
     79 H79        28.4388  -42.3637  -55.5051 H         1 UNK         0.0707 
     80 H80        27.1649  -42.0695  -54.3513 H         1 UNK         0.0707 
     81 H81        28.1419  -46.4193  -55.6726 H         1 UNK         0.1034 
     82 H82        29.2440  -45.3215  -54.9759 H         1 UNK         0.1034 
     83 H83        28.6505  -43.9900  -57.3795 H         1 UNK         0.0482 
     84 H84        32.1684  -43.9644  -57.6379 H         1 UNK         0.3460 
     85 H85        30.6533  -43.1154  -57.7961 H         1 UNK         0.3460 
     86 H86        27.8963  -46.7158  -57.8509 H         1 UNK         0.2989 
     87 H87        27.5013  -46.3528  -61.2703 H         1 UNK         0.0559 
     88 H88        29.9475  -47.9421  -60.3227 H         1 UNK         0.0848 
     89 H89        29.9427  -46.7273  -61.5919 H         1 UNK         0.0848 
     90 H90        29.0521  -48.2218  -61.8169 H         1 UNK         0.0848 
     91 H91        27.7567  -48.6665  -59.4908 H         1 UNK         0.3144 
     92 H92        24.4308  -48.6262  -58.4035 H         1 UNK         0.0727 
     93 H93        24.2186  -50.8337  -59.5181 H         1 UNK         0.0790 
     94 H94        25.5756  -50.4589  -60.5825 H         1 UNK         0.0790 
     95 H95        24.0786  -49.5452  -60.7011 H         1 UNK         0.0790 
     96 H96        26.4173  -50.6497  -58.2296 H         1 UNK         0.3215 
     97 H97        27.4204  -51.0392  -56.2576 H         1 UNK         0.0863 
     98 H98        29.2747  -48.5901  -56.1584 H         1 UNK         0.0808 
     99 H99        29.2895  -49.8471  -57.3867 H         1 UNK         0.0808 
    100 H100       29.7353  -50.2369  -55.7352 H         1 UNK         0.0808 
    101 H101       27.9888  -49.2088  -54.0929 H         1 UNK         0.3118 
    102 H102       25.0340  -49.5092  -52.3403 H         1 UNK         0.0546 
    103 H103       25.9892  -51.0043  -50.5943 H         1 UNK         0.0828 
    104 H104       27.1681  -51.6314  -51.7478 H         1 UNK         0.0828 
    105 H105       25.4532  -51.9386  -51.9786 H         1 UNK         0.0828 
    106 H106       27.7844  -49.2748  -51.4469 H         1 UNK         0.3005 
    107 H107       28.2554  -45.9342  -52.2247 H         1 UNK         0.1257 
    108 H108       27.1020  -46.8900  -49.5520 H         1 UNK         0.0775 
    109 H109       26.7536  -45.3978  -50.3779 H         1 UNK         0.0775 
    110 H110       27.7294  -43.2262  -49.6384 H         1 UNK         0.0840 
    111 H111       29.3559  -42.9716  -49.0572 H         1 UNK         0.0840 
    112 H112       29.7022  -47.4385  -50.4126 H         1 UNK         0.2987 
    113 H113       31.9907  -48.0254  -51.4820 H         1 UNK         0.0785 
    114 H114       31.9413  -50.3532  -50.4698 H         1 UNK         0.0798 
    115 H115       30.5941  -49.4057  -49.8876 H         1 UNK         0.0798 
    116 H116       30.3353  -50.6125  -51.1415 H         1 UNK         0.0798 
    117 H117       31.2868  -49.4256  -53.8434 H         1 UNK         0.3079 
    118 H118       34.5534  -50.8745  -54.4103 H         1 UNK         0.0794 
    119 H119       33.0000  -52.3873  -55.5972 H         1 UNK         0.0786 
    120 H120       31.6008  -51.6022  -54.8739 H         1 UNK         0.0786 
    121 H121       32.7119  -52.5274  -53.8739 H         1 UNK         0.0786 
    122 H122       32.9182  -48.7292  -55.3077 H         1 UNK         0.3032 
    123 H123       34.5586  -48.5089  -58.3905 H         1 UNK         0.1094 
    124 H124       31.5266  -48.7200  -57.9652 H         1 UNK         0.0794 
    125 H125       32.3281  -47.8989  -59.3022 H         1 UNK         0.0794 
    126 H126       32.4586  -49.6436  -59.1373 H         1 UNK         0.0794 
    127 H127       32.7037  -46.8108  -56.9643 H         1 UNK         0.3016 
@<TRIPOS>BOND
     1    1    2 1    
     2    1   67 1    
     3    1   68 1    
     4    1   69 1    
     5    2    3 2    
     6    2    4 am   BACKBONE|DICT|INTERRES
     7    4    5 1    
     8    4   70 1    
     9    5    6 1    
    10    5   65 1    
    11    5   71 1    
    12    6    7 1    
    13    6   72 1    
    14    6   73 1    
    15    7    8 1    
    16    8    9 1    
    17    8   74 1    
    18    8   75 1    
    19    9   10 ar   
    20    9   14 ar   
    21   10   11 ar   
    22   10   76 1    
    23   11   12 ar   
    24   11   48 1    
    25   12   13 ar   
    26   12   77 1    
    27   13   14 ar   
    28   13   15 1    
    29   14   78 1    
    30   15   16 1    
    31   15   79 1    
    32   15   80 1    
    33   16   17 1    
    34   17   18 1    
    35   17   81 1    
    36   17   82 1    
    37   18   19 1    
    38   18   22 1    
    39   18   83 1    
    40   19   20 am   BACKBONE|DICT|INTERRES
    41   19   21 2    
    42   20   84 1    
    43   20   85 1    
    44   22   23 am   BACKBONE|DICT|INTERRES
    45   22   86 1    
    46   23   24 2    
    47   23   25 1    
    48   25   26 1    
    49   25   27 1    
    50   25   87 1    
    51   26   88 1    
    52   26   89 1    
    53   26   90 1    
    54   27   28 am   BACKBONE|DICT|INTERRES
    55   27   91 1    
    56   28   29 2    
    57   28   30 1    
    58   30   31 1    
    59   30   32 1    
    60   30   92 1    
    61   31   93 1    
    62   31   94 1    
    63   31   95 1    
    64   32   33 am   BACKBONE|DICT|INTERRES
    65   32   96 1    
    66   33   34 2    
    67   33   35 1    
    68   35   36 1    
    69   35   37 1    
    70   35   97 1    
    71   36   98 1    
    72   36   99 1    
    73   36  100 1    
    74   37   38 am   BACKBONE|DICT|INTERRES
    75   37  101 1    
    76   38   39 2    
    77   38   40 1    
    78   40   41 1    
    79   40   42 1    
    80   40  102 1    
    81   41  103 1    
    82   41  104 1    
    83   41  105 1    
    84   42   43 am   BACKBONE|DICT|INTERRES
    85   42  106 1    
    86   43   44 2    
    87   43   45 1    
    88   45   46 1    
    89   45   49 1    
    90   45  107 1    
    91   46   47 1    
    92   46  108 1    
    93   46  109 1    
    94   47   48 1    
    95   48  110 1    
    96   48  111 1    
    97   49   50 am   BACKBONE|DICT|INTERRES
    98   49  112 1    
    99   50   51 2    
   100   50   52 1    
   101   52   53 1    
   102   52   54 1    
   103   52  113 1    
   104   53  114 1    
   105   53  115 1    
   106   53  116 1    
   107   54   55 am   BACKBONE|DICT|INTERRES
   108   54  117 1    
   109   55   56 2    
   110   55   57 1    
   111   57   58 1    
   112   57   59 1    
   113   57  118 1    
   114   58  119 1    
   115   58  120 1    
   116   58  121 1    
   117   59   60 am   BACKBONE|DICT|INTERRES
   118   59  122 1    
   119   60   61 2    
   120   60   62 1    
   121   62   63 1    
   122   62   64 1    
   123   62  123 1    
   124   63  124 1    
   125   63  125 1    
   126   63  126 1    
   127   64   65 am   BACKBONE|DICT|INTERRES
   128   64  127 1    
   129   65   66 2    
@<TRIPOS>SUBSTRUCTURE
     1 UNK         1 GROUP             0       ****    0 ROOT    
