@<TRIPOS>MOLECULE
3R134
127   129    1
SMALL
USER_CHARGES


@<TRIPOS>ATOM
      1 CA         38.5682  -44.9393  -51.0760 C.3       0 UNK        -0.1968 
      2 C          37.1495  -45.3912  -51.3890 C.2       0 UNK         0.4852 
      3 O          36.3658  -45.6154  -50.4648 O.2       0 UNK        -0.5359 
      4 N          36.8246  -45.5392  -52.6821 N.am      1 UNK        -0.4300 
      5 CA         35.5291  -45.9332  -53.2648 C.3       1 UNK         0.0863 
      6 C6         34.3412  -45.0125  -52.8801 C.3       11 UNK        -0.0953 
      7 S7         34.6371  -43.2673  -53.3153 S.3       11 UNK        -0.2369 
      8 C8         33.7986  -43.1590  -54.9333 C.3       11 UNK         0.0226 
      9 C9         32.2709  -43.2611  -54.9119 C.ar      11 UNK        -0.0699 
     10 C10        31.5097  -43.1359  -53.7404 C.ar      11 UNK        -0.0804 
     11 C11        30.1133  -43.2101  -53.7782 C.ar      11 UNK        -0.0871 
     12 C12        29.4739  -43.3951  -55.0079 C.ar      11 UNK        -0.1008 
     13 C13        30.2171  -43.5248  -56.1844 C.ar      11 UNK        -0.0735 
     14 C14        31.6109  -43.4585  -56.1280 C.ar      11 UNK        -0.0945 
     15 C15        29.5126  -43.7420  -57.5133 C.3       11 UNK         0.0169 
     16 S16        28.5673  -42.2650  -58.0081 S.3       11 UNK        -0.2669 
     17 C17        27.7405  -42.8427  -59.5305 C.3       11 UNK        -0.0850 
     18 CA         26.3169  -43.3998  -59.2612 C.3       10 UNK         0.0855 
     19 C          25.5482  -43.6503  -60.5926 C.2       10 UNK         0.5543 
     20 N          25.1492  -44.8738  -60.9225 N.am      10 UNK        -0.7343 
     21 O          25.3035  -42.7075  -61.3411 O.2       10 UNK        -0.5027 
     22 N          26.3754  -44.5668  -58.3732 N.am      10 UNK        -0.4495 
     23 C          25.3837  -45.0291  -57.6061 C.2       10 UNK         0.4903 
     24 O          24.2898  -44.4753  -57.4887 O.2       10 UNK        -0.4860 
     25 CA         25.6831  -46.3374  -56.8431 C.3       9 UNK         0.0227 
     26 CB         24.4061  -47.1319  -56.5014 C.3       9 UNK        -0.1964 
     27 N          26.6655  -47.2096  -57.5080 N.am      9 UNK        -0.4231 
     28 C          26.5898  -47.7113  -58.7527 C.2       9 UNK         0.5014 
     29 O          25.6794  -47.4641  -59.5446 O.2       9 UNK        -0.5270 
     30 CA         27.7359  -48.6279  -59.1936 C.3       8 UNK         0.0284 
     31 CB         28.9747  -47.8052  -59.5908 C.3       8 UNK        -0.1977 
     32 N          28.0751  -49.5704  -58.1261 N.am      8 UNK        -0.4342 
     33 C          27.6038  -50.8222  -58.0570 C.2       8 UNK         0.5039 
     34 O          26.8938  -51.3406  -58.9203 O.2       8 UNK        -0.5547 
     35 CA         27.9899  -51.6432  -56.8186 C.3       7 UNK         0.0281 
     36 CB         29.4406  -52.1430  -56.9255 C.3       7 UNK        -0.1963 
     37 N          27.8142  -50.9148  -55.5616 N.am      7 UNK        -0.4444 
     38 C          26.6332  -50.5954  -55.0133 C.2       7 UNK         0.5104 
     39 O          25.5462  -50.8165  -55.5467 O.2       7 UNK        -0.5100 
     40 CA         26.6675  -49.9382  -53.6243 C.3       6 UNK         0.0396 
     41 CB         26.9296  -50.9939  -52.5374 C.3       6 UNK        -0.1801 
     42 N          27.7017  -48.9053  -53.5541 N.am      6 UNK        -0.4747 
     43 C          27.4667  -47.5853  -53.5393 C.2       6 UNK         0.5012 
     44 O          26.3364  -47.1017  -53.4812 O.2       6 UNK        -0.5003 
     45 CA         28.6855  -46.6346  -53.6279 C.3       5 UNK         0.0782 
     46 C46        28.9329  -45.8603  -52.3059 C.3       11 UNK        -0.0868 
     47 S47        27.9974  -44.2942  -52.2608 S.3       11 UNK        -0.2515 
     48 C48        29.3112  -43.0455  -52.4885 C.3       11 UNK         0.0199 
     49 N          29.9082  -47.2891  -54.1021 N.am      5 UNK        -0.4607 
     50 C          30.0868  -47.7396  -55.3492 C.2       4 UNK         0.5031 
     51 O          29.2236  -47.6808  -56.2268 O.2       4 UNK        -0.5119 
     52 CA         31.4280  -48.4278  -55.6524 C.3       4 UNK         0.0263 
     53 CB         32.4618  -47.3789  -56.0908 C.3       4 UNK        -0.1967 
     54 N          31.9722  -49.2493  -54.5563 N.am      4 UNK        -0.4237 
     55 C          31.3066  -50.2359  -53.9292 C.2       3 UNK         0.4908 
     56 O          30.1160  -50.4757  -54.1256 O.2       3 UNK        -0.5102 
     57 CA         32.0573  -51.1346  -52.9320 C.3       3 UNK         0.0241 
     58 CB         32.2655  -52.5327  -53.5372 C.3       3 UNK        -0.1971 
     59 N          33.3484  -50.6111  -52.4902 N.am      3 UNK        -0.4139 
     60 C          33.5113  -49.6067  -51.6209 C.2       2 UNK         0.5016 
     61 O          32.5782  -48.9838  -51.1113 O.2       2 UNK        -0.5319 
     62 CA         34.9590  -49.2093  -51.2719 C.3       2 UNK         0.0286 
     63 CB         36.0310  -50.2192  -51.7435 C.3       2 UNK        -0.1963 
     64 N          35.2773  -47.8677  -51.7661 N.am      2 UNK        -0.4790 
     65 C          35.1671  -47.4121  -53.0213 C.2       1 UNK         0.5024 
     66 O          34.7953  -48.1054  -53.9700 O.2       1 UNK        -0.4888 
     67 H67        39.0756  -45.6894  -50.4699 H         1 UNK         0.0892 
     68 H68        39.1557  -44.7791  -51.9798 H         1 UNK         0.0892 
     69 H69        38.5477  -44.0050  -50.5157 H         1 UNK         0.0892 
     70 H70        37.5427  -45.3594  -53.3701 H         1 UNK         0.3107 
     71 H71        35.6669  -45.8401  -54.3435 H         1 UNK         0.0773 
     72 H72        33.4234  -45.3482  -53.3654 H         1 UNK         0.0680 
     73 H73        34.1412  -45.0617  -51.8087 H         1 UNK         0.0680 
     74 H74        34.2061  -43.9363  -55.5817 H         1 UNK         0.0650 
     75 H75        34.0688  -42.2053  -55.3884 H         1 UNK         0.0650 
     76 H76        31.9967  -42.9675  -52.7909 H         1 UNK         0.1397 
     77 H77        28.3940  -43.4334  -55.0531 H         1 UNK         0.1363 
     78 H78        32.1872  -43.5513  -57.0386 H         1 UNK         0.1355 
     79 H79        30.2295  -43.9884  -58.2982 H         1 UNK         0.0707 
     80 H80        28.8542  -44.6041  -57.4145 H         1 UNK         0.0707 
     81 H81        27.6903  -41.9885  -60.2088 H         1 UNK         0.1034 
     82 H82        28.3625  -43.5854  -60.0336 H         1 UNK         0.1034 
     83 H83        25.7539  -42.6226  -58.7407 H         1 UNK         0.0482 
     84 H84        24.6499  -45.0091  -61.7869 H         1 UNK         0.3460 
     85 H85        25.3352  -45.6703  -60.3217 H         1 UNK         0.3460 
     86 H86        27.2215  -45.1110  -58.4202 H         1 UNK         0.2989 
     87 H87        26.1422  -46.0266  -55.9051 H         1 UNK         0.0559 
     88 H88        23.8680  -47.4374  -57.3992 H         1 UNK         0.0848 
     89 H89        23.7223  -46.5359  -55.8959 H         1 UNK         0.0848 
     90 H90        24.6416  -48.0289  -55.9284 H         1 UNK         0.0848 
     91 H91        27.4994  -47.4261  -56.9665 H         1 UNK         0.3144 
     92 H92        27.4053  -49.1709  -60.0818 H         1 UNK         0.0727 
     93 H93        29.3516  -47.1946  -58.7706 H         1 UNK         0.0790 
     94 H94        28.7421  -47.1304  -60.4158 H         1 UNK         0.0790 
     95 H95        29.7863  -48.4524  -59.9232 H         1 UNK         0.0790 
     96 H96        28.6187  -49.2020  -57.3527 H         1 UNK         0.3215 
     97 H97        27.3363  -52.5178  -56.7878 H         1 UNK         0.0863 
     98 H98        29.6960  -52.7973  -56.0917 H         1 UNK         0.0808 
     99 H99        30.1553  -51.3197  -56.9329 H         1 UNK         0.0808 
    100 H100       29.5903  -52.7139  -57.8429 H         1 UNK         0.0808 
    101 H101       28.6632  -50.7274  -55.0285 H         1 UNK         0.3118 
    102 H102       25.6813  -49.5079  -53.4386 H         1 UNK         0.0546 
    103 H103       26.1764  -51.7823  -52.5696 H         1 UNK         0.0828 
    104 H104       26.8927  -50.5517  -51.5419 H         1 UNK         0.0828 
    105 H105       27.9046  -51.4685  -52.6557 H         1 UNK         0.0828 
    106 H106       28.6615  -49.2272  -53.6280 H         1 UNK         0.3005 
    107 H107       28.4248  -45.9124  -54.4040 H         1 UNK         0.1257 
    108 H108       29.9916  -45.6229  -52.1878 H         1 UNK         0.0775 
    109 H109       28.6731  -46.4599  -51.4312 H         1 UNK         0.0775 
    110 H110       28.8540  -42.0553  -52.4887 H         1 UNK         0.0840 
    111 H111       29.9684  -43.0776  -51.6180 H         1 UNK         0.0840 
    112 H112       30.6530  -47.4106  -53.4314 H         1 UNK         0.2987 
    113 H113       31.2564  -49.1000  -56.4950 H         1 UNK         0.0785 
    114 H114       32.6997  -46.6849  -55.2844 H         1 UNK         0.0798 
    115 H115       32.0882  -46.7865  -56.9276 H         1 UNK         0.0798 
    116 H116       33.3909  -47.8470  -56.4163 H         1 UNK         0.0798 
    117 H117       32.9468  -49.0943  -54.3204 H         1 UNK         0.3079 
    118 H118       31.4155  -51.2390  -52.0544 H         1 UNK         0.0794 
    119 H119       32.9045  -52.5000  -54.4207 H         1 UNK         0.0786 
    120 H120       31.3147  -52.9744  -53.8399 H         1 UNK         0.0786 
    121 H121       32.7200  -53.2139  -52.8175 H         1 UNK         0.0786 
    122 H122       34.1738  -51.0416  -52.8818 H         1 UNK         0.3032 
    123 H123       35.0043  -49.1622  -50.1825 H         1 UNK         0.1094 
    124 H124       37.0191  -49.9284  -51.3862 H         1 UNK         0.0794 
    125 H125       35.8351  -51.2178  -51.3500 H         1 UNK         0.0794 
    126 H126       36.0879  -50.2911  -52.8302 H         1 UNK         0.0794 
    127 H127       35.5757  -47.1884  -51.0679 H         1 UNK         0.3016 
@<TRIPOS>BOND
     1    1    2 1    
     2    1   67 1    
     3    1   68 1    
     4    1   69 1    
     5    2    3 2    
     6    2    4 am   BACKBONE|DICT|INTERRES
     7    4    5 1    
     8    4   70 1    
     9    5    6 1    
    10    5   65 1    
    11    5   71 1    
    12    6    7 1    
    13    6   72 1    
    14    6   73 1    
    15    7    8 1    
    16    8    9 1    
    17    8   74 1    
    18    8   75 1    
    19    9   10 ar   
    20    9   14 ar   
    21   10   11 ar   
    22   10   76 1    
    23   11   12 ar   
    24   11   48 1    
    25   12   13 ar   
    26   12   77 1    
    27   13   14 ar   
    28   13   15 1    
    29   14   78 1    
    30   15   16 1    
    31   15   79 1    
    32   15   80 1    
    33   16   17 1    
    34   17   18 1    
    35   17   81 1    
    36   17   82 1    
    37   18   19 1    
    38   18   22 1    
    39   18   83 1    
    40   19   20 am   BACKBONE|DICT|INTERRES
    41   19   21 2    
    42   20   84 1    
    43   20   85 1    
    44   22   23 am   BACKBONE|DICT|INTERRES
    45   22   86 1    
    46   23   24 2    
    47   23   25 1    
    48   25   26 1    
    49   25   27 1    
    50   25   87 1    
    51   26   88 1    
    52   26   89 1    
    53   26   90 1    
    54   27   28 am   BACKBONE|DICT|INTERRES
    55   27   91 1    
    56   28   29 2    
    57   28   30 1    
    58   30   31 1    
    59   30   32 1    
    60   30   92 1    
    61   31   93 1    
    62   31   94 1    
    63   31   95 1    
    64   32   33 am   BACKBONE|DICT|INTERRES
    65   32   96 1    
    66   33   34 2    
    67   33   35 1    
    68   35   36 1    
    69   35   37 1    
    70   35   97 1    
    71   36   98 1    
    72   36   99 1    
    73   36  100 1    
    74   37   38 am   BACKBONE|DICT|INTERRES
    75   37  101 1    
    76   38   39 2    
    77   38   40 1    
    78   40   41 1    
    79   40   42 1    
    80   40  102 1    
    81   41  103 1    
    82   41  104 1    
    83   41  105 1    
    84   42   43 am   BACKBONE|DICT|INTERRES
    85   42  106 1    
    86   43   44 2    
    87   43   45 1    
    88   45   46 1    
    89   45   49 1    
    90   45  107 1    
    91   46   47 1    
    92   46  108 1    
    93   46  109 1    
    94   47   48 1    
    95   48  110 1    
    96   48  111 1    
    97   49   50 am   BACKBONE|DICT|INTERRES
    98   49  112 1    
    99   50   51 2    
   100   50   52 1    
   101   52   53 1    
   102   52   54 1    
   103   52  113 1    
   104   53  114 1    
   105   53  115 1    
   106   53  116 1    
   107   54   55 am   BACKBONE|DICT|INTERRES
   108   54  117 1    
   109   55   56 2    
   110   55   57 1    
   111   57   58 1    
   112   57   59 1    
   113   57  118 1    
   114   58  119 1    
   115   58  120 1    
   116   58  121 1    
   117   59   60 am   BACKBONE|DICT|INTERRES
   118   59  122 1    
   119   60   61 2    
   120   60   62 1    
   121   62   63 1    
   122   62   64 1    
   123   62  123 1    
   124   63  124 1    
   125   63  125 1    
   126   63  126 1    
   127   64   65 am   BACKBONE|DICT|INTERRES
   128   64  127 1    
   129   65   66 2    
@<TRIPOS>SUBSTRUCTURE
     1 UNK         1 GROUP             0       ****    0 ROOT    
