@<TRIPOS>MOLECULE
3R134
127   129    1
SMALL
USER_CHARGES


@<TRIPOS>ATOM
      1 CA         37.8391  -46.9623  -51.8111 C.3       0 UNK        -0.1968 
      2 C          36.5605  -47.1067  -52.6219 C.2       0 UNK         0.4852 
      3 O          36.0271  -48.2126  -52.7358 O.2       0 UNK        -0.5359 
      4 N          36.0451  -45.9962  -53.1705 N.am      1 UNK        -0.4300 
      5 CA         34.8471  -45.9532  -54.0204 C.3       1 UNK         0.0863 
      6 C6         34.7387  -44.6646  -54.8750 C.3       11 UNK        -0.0953 
      7 S7         35.0272  -43.0744  -54.0184 S.3       11 UNK        -0.2369 
      8 C8         33.5606  -42.8366  -52.9518 C.3       11 UNK         0.0226 
      9 C9         32.1887  -42.9090  -53.6268 C.ar      11 UNK        -0.0699 
     10 C10        31.0814  -43.2036  -52.8259 C.ar      11 UNK        -0.0804 
     11 C11        29.8026  -43.3138  -53.3775 C.ar      11 UNK        -0.0871 
     12 C12        29.6322  -43.1343  -54.7521 C.ar      11 UNK        -0.1008 
     13 C13        30.7259  -42.8380  -55.5708 C.ar      11 UNK        -0.0735 
     14 C14        31.9951  -42.6965  -54.9988 C.ar      11 UNK        -0.0945 
     15 C15        30.5514  -42.7644  -57.0810 C.3       11 UNK         0.0169 
     16 S16        29.2849  -41.5599  -57.5987 S.3       11 UNK        -0.2669 
     17 C17        28.8370  -42.2538  -59.2306 C.3       11 UNK        -0.0850 
     18 CA         27.4457  -42.9477  -59.2603 C.3       10 UNK         0.0855 
     19 C          27.1972  -43.5962  -60.6542 C.2       10 UNK         0.5543 
     20 N          27.1876  -44.9193  -60.7783 N.am      10 UNK        -0.7343 
     21 O          27.0128  -42.8829  -61.6371 O.2       10 UNK        -0.5027 
     22 N          27.2485  -43.8669  -58.1277 N.am      10 UNK        -0.4495 
     23 C          26.0647  -44.3475  -57.7310 C.2       10 UNK         0.4903 
     24 O          24.9832  -44.0372  -58.2339 O.2       10 UNK        -0.4860 
     25 CA         26.1049  -45.3715  -56.5849 C.3       9 UNK         0.0227 
     26 CB         25.0772  -45.0290  -55.4931 C.3       9 UNK        -0.1964 
     27 N          25.8673  -46.7388  -57.0569 N.am      9 UNK        -0.4231 
     28 C          26.5950  -47.3905  -57.9736 C.2       9 UNK         0.5014 
     29 O          27.6033  -46.9265  -58.5111 O.2       9 UNK        -0.5270 
     30 CA         26.1104  -48.7923  -58.3617 C.3       8 UNK         0.0284 
     31 CB         26.1426  -48.9921  -59.8913 C.3       8 UNK        -0.1977 
     32 N          26.9444  -49.7890  -57.6938 N.am      8 UNK        -0.4342 
     33 C          26.6243  -51.0795  -57.5315 C.2       8 UNK         0.5039 
     34 O          25.5678  -51.5778  -57.9235 O.2       8 UNK        -0.5547 
     35 CA         27.6435  -51.9683  -56.8006 C.3       7 UNK         0.0281 
     36 CB         28.9099  -52.1900  -57.6460 C.3       7 UNK        -0.1963 
     37 N          28.0001  -51.4059  -55.4985 N.am      7 UNK        -0.4444 
     38 C          27.2855  -51.5821  -54.3778 C.2       7 UNK         0.5104 
     39 O          26.2918  -52.3062  -54.3071 O.2       7 UNK        -0.5100 
     40 CA         27.7450  -50.8264  -53.1150 C.3       6 UNK         0.0396 
     41 CB         28.6348  -51.7240  -52.2412 C.3       6 UNK        -0.1801 
     42 N          28.4541  -49.5776  -53.3995 N.am      6 UNK        -0.4747 
     43 C          27.9096  -48.5063  -53.9950 C.2       6 UNK         0.5012 
     44 O          26.7259  -48.4315  -54.3258 O.2       6 UNK        -0.5003 
     45 CA         28.8708  -47.3457  -54.3176 C.3       5 UNK         0.0782 
     46 C46        29.0460  -46.4116  -53.0935 C.3       11 UNK        -0.0868 
     47 S47        27.7250  -45.1558  -53.0138 S.3       11 UNK        -0.2515 
     48 C48        28.6168  -43.6558  -52.4838 C.3       11 UNK         0.0199 
     49 N          30.1578  -47.8091  -54.8480 N.am      5 UNK        -0.4607 
     50 C          30.3215  -48.5696  -55.9396 C.2       4 UNK         0.5031 
     51 O          29.3958  -48.9471  -56.6539 O.2       4 UNK        -0.5119 
     52 CA         31.7468  -49.0483  -56.2522 C.3       4 UNK         0.0263 
     53 CB         32.5252  -47.9890  -57.0496 C.3       4 UNK        -0.1967 
     54 N          32.4718  -49.4040  -55.0305 N.am      4 UNK        -0.4237 
     55 C          32.2129  -50.4954  -54.2941 C.2       3 UNK         0.4908 
     56 O          31.4093  -51.3671  -54.6249 O.2       3 UNK        -0.5102 
     57 CA         32.9465  -50.6185  -52.9465 C.3       3 UNK         0.0241 
     58 CB         34.3185  -51.2843  -53.1352 C.3       3 UNK        -0.1971 
     59 N          33.1153  -49.3271  -52.2737 N.am      3 UNK        -0.4139 
     60 C          32.1038  -48.6006  -51.7697 C.2       2 UNK         0.5016 
     61 O          30.9325  -48.9801  -51.7575 O.2       2 UNK        -0.5319 
     62 CA         32.4442  -47.1869  -51.2523 C.3       2 UNK         0.0286 
     63 CB         32.7937  -47.2272  -49.7573 C.3       2 UNK        -0.1963 
     64 N          33.5417  -46.5546  -51.9934 N.am      2 UNK        -0.4790 
     65 C          33.5230  -46.3190  -53.3138 C.2       1 UNK         0.5024 
     66 O          32.5107  -46.4677  -53.9950 O.2       1 UNK        -0.4888 
     67 H67        38.6284  -47.5745  -52.2464 H         1 UNK         0.0892 
     68 H68        38.1881  -45.9303  -51.7798 H         1 UNK         0.0892 
     69 H69        37.6740  -47.2967  -50.7873 H         1 UNK         0.0892 
     70 H70        36.5062  -45.1072  -53.0323 H         1 UNK         0.3107 
     71 H71        34.9779  -46.7636  -54.7413 H         1 UNK         0.0773 
     72 H72        33.7954  -44.6337  -55.4204 H         1 UNK         0.0680 
     73 H73        35.4976  -44.7167  -55.6571 H         1 UNK         0.0680 
     74 H74        33.6497  -41.8605  -52.4738 H         1 UNK         0.0650 
     75 H75        33.6123  -43.5709  -52.1469 H         1 UNK         0.0650 
     76 H76        31.2201  -43.3607  -51.7648 H         1 UNK         0.1397 
     77 H77        28.6491  -43.2480  -55.1879 H         1 UNK         0.1363 
     78 H78        32.8374  -42.4617  -55.6337 H         1 UNK         0.1355 
     79 H79        31.4927  -42.5138  -57.5728 H         1 UNK         0.0707 
     80 H80        30.2787  -43.7615  -57.4295 H         1 UNK         0.0707 
     81 H81        29.6165  -42.9444  -59.5587 H         1 UNK         0.1034 
     82 H82        28.8543  -41.4349  -59.9525 H         1 UNK         0.1034 
     83 H83        26.6958  -42.1611  -59.1551 H         1 UNK         0.0482 
     84 H84        27.3547  -45.5151  -59.9746 H         1 UNK         0.3460 
     85 H85        27.0270  -45.3288  -61.6844 H         1 UNK         0.3460 
     86 H86        28.0873  -44.2147  -57.6895 H         1 UNK         0.2989 
     87 H87        27.0951  -45.3346  -56.1320 H         1 UNK         0.0559 
     88 H88        24.0545  -45.0620  -55.8709 H         1 UNK         0.0848 
     89 H89        25.2481  -44.0260  -55.0998 H         1 UNK         0.0848 
     90 H90        25.1465  -45.7204  -54.6529 H         1 UNK         0.0848 
     91 H91        25.0657  -47.2096  -56.6624 H         1 UNK         0.3144 
     92 H92        25.0798  -48.9106  -58.0203 H         1 UNK         0.0727 
     93 H93        25.7000  -49.9451  -60.1808 H         1 UNK         0.0790 
     94 H94        27.1619  -48.9659  -60.2788 H         1 UNK         0.0790 
     95 H95        25.5795  -48.2078  -60.3989 H         1 UNK         0.0790 
     96 H96        27.8365  -49.4452  -57.3306 H         1 UNK         0.3215 
     97 H97        27.1813  -52.9463  -56.6468 H         1 UNK         0.0863 
     98 H98        29.4289  -51.2583  -57.8692 H         1 UNK         0.0808 
     99 H99        28.6608  -52.6572  -58.5996 H         1 UNK         0.0808 
    100 H100       29.6140  -52.8481  -57.1365 H         1 UNK         0.0808 
    101 H101       28.7845  -50.7673  -55.4752 H         1 UNK         0.3118 
    102 H102       26.8510  -50.5735  -52.5413 H         1 UNK         0.0546 
    103 H103       28.9177  -51.2229  -51.3152 H         1 UNK         0.0828 
    104 H104       29.5505  -52.0110  -52.7588 H         1 UNK         0.0828 
    105 H105       28.1137  -52.6423  -51.9675 H         1 UNK         0.0828 
    106 H106       29.4236  -49.5215  -53.1023 H         1 UNK         0.3005 
    107 H107       28.4203  -46.7818  -55.1333 H         1 UNK         0.1257 
    108 H108       30.0073  -45.9046  -53.1571 H         1 UNK         0.0775 
    109 H109       29.0736  -46.9647  -52.1526 H         1 UNK         0.0775 
    110 H110       27.9216  -42.8153  -52.4822 H         1 UNK         0.0840 
    111 H111       28.9353  -43.7913  -51.4490 H         1 UNK         0.0840 
    112 H112       30.9896  -47.4763  -54.3681 H         1 UNK         0.2987 
    113 H113       31.6677  -49.9437  -56.8731 H         1 UNK         0.0785 
    114 H114       33.5320  -48.3316  -57.2884 H         1 UNK         0.0798 
    115 H115       32.0239  -47.7754  -57.9947 H         1 UNK         0.0798 
    116 H116       32.6093  -47.0449  -56.5120 H         1 UNK         0.0798 
    117 H117       33.1201  -48.7205  -54.6699 H         1 UNK         0.3079 
    118 H118       32.3422  -51.2586  -52.2998 H         1 UNK         0.0794 
    119 H119       34.8162  -51.4437  -52.1785 H         1 UNK         0.0786 
    120 H120       34.9795  -50.6804  -53.7585 H         1 UNK         0.0786 
    121 H121       34.2170  -52.2592  -53.6142 H         1 UNK         0.0786 
    122 H122       34.0527  -48.9379  -52.2594 H         1 UNK         0.3032 
    123 H123       31.5545  -46.5673  -51.3795 H         1 UNK         0.1094 
    124 H124       31.9832  -47.6751  -49.1803 H         1 UNK         0.0794 
    125 H125       33.6929  -47.8147  -49.5670 H         1 UNK         0.0794 
    126 H126       32.9557  -46.2248  -49.3604 H         1 UNK         0.0794 
    127 H127       34.4138  -46.4262  -51.5010 H         1 UNK         0.3016 
@<TRIPOS>BOND
     1    1    2 1    
     2    1   67 1    
     3    1   68 1    
     4    1   69 1    
     5    2    3 2    
     6    2    4 am   BACKBONE|DICT|INTERRES
     7    4    5 1    
     8    4   70 1    
     9    5    6 1    
    10    5   65 1    
    11    5   71 1    
    12    6    7 1    
    13    6   72 1    
    14    6   73 1    
    15    7    8 1    
    16    8    9 1    
    17    8   74 1    
    18    8   75 1    
    19    9   10 ar   
    20    9   14 ar   
    21   10   11 ar   
    22   10   76 1    
    23   11   12 ar   
    24   11   48 1    
    25   12   13 ar   
    26   12   77 1    
    27   13   14 ar   
    28   13   15 1    
    29   14   78 1    
    30   15   16 1    
    31   15   79 1    
    32   15   80 1    
    33   16   17 1    
    34   17   18 1    
    35   17   81 1    
    36   17   82 1    
    37   18   19 1    
    38   18   22 1    
    39   18   83 1    
    40   19   20 am   BACKBONE|DICT|INTERRES
    41   19   21 2    
    42   20   84 1    
    43   20   85 1    
    44   22   23 am   BACKBONE|DICT|INTERRES
    45   22   86 1    
    46   23   24 2    
    47   23   25 1    
    48   25   26 1    
    49   25   27 1    
    50   25   87 1    
    51   26   88 1    
    52   26   89 1    
    53   26   90 1    
    54   27   28 am   BACKBONE|DICT|INTERRES
    55   27   91 1    
    56   28   29 2    
    57   28   30 1    
    58   30   31 1    
    59   30   32 1    
    60   30   92 1    
    61   31   93 1    
    62   31   94 1    
    63   31   95 1    
    64   32   33 am   BACKBONE|DICT|INTERRES
    65   32   96 1    
    66   33   34 2    
    67   33   35 1    
    68   35   36 1    
    69   35   37 1    
    70   35   97 1    
    71   36   98 1    
    72   36   99 1    
    73   36  100 1    
    74   37   38 am   BACKBONE|DICT|INTERRES
    75   37  101 1    
    76   38   39 2    
    77   38   40 1    
    78   40   41 1    
    79   40   42 1    
    80   40  102 1    
    81   41  103 1    
    82   41  104 1    
    83   41  105 1    
    84   42   43 am   BACKBONE|DICT|INTERRES
    85   42  106 1    
    86   43   44 2    
    87   43   45 1    
    88   45   46 1    
    89   45   49 1    
    90   45  107 1    
    91   46   47 1    
    92   46  108 1    
    93   46  109 1    
    94   47   48 1    
    95   48  110 1    
    96   48  111 1    
    97   49   50 am   BACKBONE|DICT|INTERRES
    98   49  112 1    
    99   50   51 2    
   100   50   52 1    
   101   52   53 1    
   102   52   54 1    
   103   52  113 1    
   104   53  114 1    
   105   53  115 1    
   106   53  116 1    
   107   54   55 am   BACKBONE|DICT|INTERRES
   108   54  117 1    
   109   55   56 2    
   110   55   57 1    
   111   57   58 1    
   112   57   59 1    
   113   57  118 1    
   114   58  119 1    
   115   58  120 1    
   116   58  121 1    
   117   59   60 am   BACKBONE|DICT|INTERRES
   118   59  122 1    
   119   60   61 2    
   120   60   62 1    
   121   62   63 1    
   122   62   64 1    
   123   62  123 1    
   124   63  124 1    
   125   63  125 1    
   126   63  126 1    
   127   64   65 am   BACKBONE|DICT|INTERRES
   128   64  127 1    
   129   65   66 2    
@<TRIPOS>SUBSTRUCTURE
     1 UNK         1 GROUP             0       ****    0 ROOT    
