@<TRIPOS>MOLECULE
3R134
127   129    1
SMALL
USER_CHARGES


@<TRIPOS>ATOM
      1 CA         35.1999  -44.8920  -53.7733 C.3       0 UNK        -0.1968 
      2 C          34.1801  -45.8780  -53.2263 C.2       0 UNK         0.4852 
      3 O          34.1000  -47.0079  -53.7075 O.2       0 UNK        -0.5359 
      4 N          33.4058  -45.4717  -52.2109 N.am      1 UNK        -0.4300 
      5 CA         32.3268  -46.2664  -51.6025 C.3       1 UNK         0.0863 
      6 C6         31.3575  -45.4038  -50.7519 C.3       11 UNK        -0.0953 
      7 S7         30.7598  -43.9041  -51.6035 S.3       11 UNK        -0.2369 
      8 C8         29.6145  -44.5997  -52.8340 C.3       11 UNK         0.0226 
      9 C9         29.9003  -44.0225  -54.2109 C.ar      11 UNK        -0.0699 
     10 C10        30.9163  -44.5641  -55.0024 C.ar      11 UNK        -0.0804 
     11 C11        31.2095  -44.0127  -56.2526 C.ar      11 UNK        -0.0871 
     12 C12        30.4726  -42.9167  -56.7108 C.ar      11 UNK        -0.1008 
     13 C13        29.4447  -42.3665  -55.9337 C.ar      11 UNK        -0.0735 
     14 C14        29.1690  -42.9293  -54.6831 C.ar      11 UNK        -0.0945 
     15 C15        28.6336  -41.1437  -56.3694 C.3       11 UNK         0.0169 
     16 S16        28.7823  -40.6458  -58.1248 S.3       11 UNK        -0.2669 
     17 C17        28.0011  -42.0021  -59.0729 C.3       11 UNK        -0.0850 
     18 CA         26.6128  -42.4589  -58.5327 C.3       10 UNK         0.0855 
     19 C          25.5750  -42.6953  -59.6728 C.2       10 UNK         0.5543 
     20 N          24.8714  -43.8196  -59.7315 N.am      10 UNK        -0.7343 
     21 O          25.3886  -41.8262  -60.5210 O.2       10 UNK        -0.5027 
     22 N          26.7621  -43.6000  -57.6156 N.am      10 UNK        -0.4495 
     23 C          25.9834  -43.8496  -56.5574 C.2       10 UNK         0.4903 
     24 O          25.0866  -43.0971  -56.1730 O.2       10 UNK        -0.4860 
     25 CA         26.2543  -45.1787  -55.8218 C.3       9 UNK         0.0227 
     26 CB         25.1387  -45.5405  -54.8199 C.3       9 UNK        -0.1964 
     27 N          26.5127  -46.3064  -56.7295 N.am      9 UNK        -0.4231 
     28 C          25.7242  -46.7465  -57.7246 C.2       9 UNK         0.5014 
     29 O          24.6609  -46.2184  -58.0504 O.2       9 UNK        -0.5270 
     30 CA         26.2078  -47.9840  -58.4933 C.3       8 UNK         0.0284 
     31 CB         27.3162  -47.6114  -59.4932 C.3       8 UNK        -0.1977 
     32 N          26.6863  -49.0152  -57.5728 N.am      8 UNK        -0.4342 
     33 C          25.8982  -49.9186  -56.9712 C.2       8 UNK         0.5039 
     34 O          24.6975  -50.0496  -57.2127 O.2       8 UNK        -0.5547 
     35 CA         26.5508  -50.8296  -55.9153 C.3       7 UNK         0.0281 
     36 CB         26.9945  -52.1580  -56.5487 C.3       7 UNK        -0.1963 
     37 N          27.6894  -50.1853  -55.2529 N.am      7 UNK        -0.4444 
     38 C          27.5559  -49.2163  -54.3331 C.2       7 UNK         0.5104 
     39 O          26.4687  -48.8720  -53.8706 O.2       7 UNK        -0.5100 
     40 CA         28.8229  -48.4804  -53.8524 C.3       6 UNK         0.0396 
     41 CB         29.2259  -48.9714  -52.4557 C.3       6 UNK        -0.1801 
     42 N          29.9772  -48.5790  -54.7518 N.am      6 UNK        -0.4747 
     43 C          30.0063  -48.1249  -56.0154 C.2       6 UNK         0.5012 
     44 O          29.0714  -47.5058  -56.5241 O.2       6 UNK        -0.5003 
     45 CA         31.2283  -48.5079  -56.8852 C.3       5 UNK         0.0782 
     46 C46        32.2828  -47.3772  -56.9342 C.3       11 UNK        -0.0868 
     47 S47        31.8310  -46.0200  -58.0644 S.3       11 UNK        -0.2515 
     48 C48        32.3458  -44.5659  -57.0996 C.3       11 UNK         0.0199 
     49 N          31.8562  -49.7682  -56.4719 N.am      5 UNK        -0.4607 
     50 C          31.2508  -50.9567  -56.3448 C.2       4 UNK         0.5031 
     51 O          30.0805  -51.1543  -56.6673 O.2       4 UNK        -0.5119 
     52 CA         32.0548  -52.1041  -55.7007 C.3       4 UNK         0.0263 
     53 CB         32.3933  -53.1730  -56.7524 C.3       4 UNK        -0.1967 
     54 N          33.2901  -51.6969  -55.0147 N.am      4 UNK        -0.4237 
     55 C          33.3815  -50.8386  -53.9874 C.2       3 UNK         0.4908 
     56 O          32.4092  -50.2609  -53.4923 O.2       3 UNK        -0.5102 
     57 CA         34.8061  -50.5572  -53.4802 C.3       3 UNK         0.0241 
     58 CB         35.6833  -49.9560  -54.5956 C.3       3 UNK        -0.1971 
     59 N          34.7772  -49.6136  -52.3648 N.am      3 UNK        -0.4139 
     60 C          34.8974  -49.9370  -51.0695 C.2       2 UNK         0.5016 
     61 O          35.0971  -51.0839  -50.6659 O.2       2 UNK        -0.5319 
     62 CA         34.7973  -48.7928  -50.0396 C.3       2 UNK         0.0286 
     63 CB         36.1946  -48.4079  -49.5261 C.3       2 UNK        -0.1963 
     64 N          34.1434  -47.5974  -50.5775 N.am      2 UNK        -0.4790 
     65 C          32.8253  -47.4895  -50.7968 C.2       1 UNK         0.5024 
     66 O          32.0113  -48.3224  -50.3990 O.2       1 UNK        -0.4888 
     67 H67        35.0861  -44.7935  -54.8520 H         1 UNK         0.0892 
     68 H68        36.2097  -45.2470  -53.5697 H         1 UNK         0.0892 
     69 H69        35.0888  -43.9029  -53.3296 H         1 UNK         0.0892 
     70 H70        33.5061  -44.5331  -51.8500 H         1 UNK         0.3107 
     71 H71        31.7531  -46.6871  -52.4302 H         1 UNK         0.0773 
     72 H72        31.8484  -45.0818  -49.8316 H         1 UNK         0.0680 
     73 H73        30.4900  -45.9905  -50.4428 H         1 UNK         0.0680 
     74 H74        29.7032  -45.6842  -52.8663 H         1 UNK         0.0650 
     75 H75        28.5885  -44.3864  -52.5307 H         1 UNK         0.0650 
     76 H76        31.4890  -45.4018  -54.6327 H         1 UNK         0.1397 
     77 H77        30.7214  -42.4879  -57.6705 H         1 UNK         0.1363 
     78 H78        28.3904  -42.5028  -54.0651 H         1 UNK         0.1355 
     79 H79        28.9637  -40.2989  -55.7636 H         1 UNK         0.0707 
     80 H80        27.5818  -41.2885  -56.1229 H         1 UNK         0.0707 
     81 H81        28.6944  -42.8425  -59.1313 H         1 UNK         0.1034 
     82 H82        27.9309  -41.6340  -60.0982 H         1 UNK         0.1034 
     83 H83        26.1841  -41.6258  -57.9735 H         1 UNK         0.0482 
     84 H84        24.9527  -44.5384  -59.0203 H         1 UNK         0.3460 
     85 H85        24.2044  -43.9359  -60.4773 H         1 UNK         0.3460 
     86 H86        27.4666  -44.2798  -57.8600 H         1 UNK         0.2989 
     87 H87        27.1734  -45.0328  -55.2531 H         1 UNK         0.0559 
     88 H88        25.3699  -46.4598  -54.2832 H         1 UNK         0.0848 
     89 H89        24.1782  -45.6764  -55.3181 H         1 UNK         0.0848 
     90 H90        25.0116  -44.7559  -54.0732 H         1 UNK         0.0848 
     91 H91        27.4087  -46.7741  -56.5968 H         1 UNK         0.3144 
     92 H92        25.3636  -48.3765  -59.0646 H         1 UNK         0.0727 
     93 H93        27.6343  -48.4794  -60.0708 H         1 UNK         0.0790 
     94 H94        28.1968  -47.1974  -59.0013 H         1 UNK         0.0790 
     95 H95        26.9609  -46.8634  -60.2035 H         1 UNK         0.0790 
     96 H96        27.6515  -48.9441  -57.2774 H         1 UNK         0.3215 
     97 H97        25.7952  -51.0552  -55.1592 H         1 UNK         0.0863 
     98 H98        27.4773  -52.8074  -55.8184 H         1 UNK         0.0808 
     99 H99        27.6907  -52.0022  -57.3733 H         1 UNK         0.0808 
    100 H100       26.1371  -52.7005  -56.9494 H         1 UNK         0.0808 
    101 H101       28.6144  -50.4358  -55.5921 H         1 UNK         0.3118 
    102 H102       28.5530  -47.4260  -53.7807 H         1 UNK         0.0546 
    103 H103       28.3834  -48.9340  -51.7637 H         1 UNK         0.0828 
    104 H104       30.0108  -48.3474  -52.0353 H         1 UNK         0.0828 
    105 H105       29.5893  -49.9996  -52.4767 H         1 UNK         0.0828 
    106 H106       30.7769  -49.1006  -54.4071 H         1 UNK         0.3005 
    107 H107       30.8504  -48.6754  -57.8963 H         1 UNK         0.1257 
    108 H108       33.2328  -47.7676  -57.3034 H         1 UNK         0.0775 
    109 H109       32.4961  -47.0022  -55.9327 H         1 UNK         0.0775 
    110 H110       33.2036  -44.8098  -56.4719 H         1 UNK         0.0840 
    111 H111       32.6980  -43.8016  -57.7941 H         1 UNK         0.0840 
    112 H112       32.8154  -49.7033  -56.1668 H         1 UNK         0.2987 
    113 H113       31.4037  -52.5574  -54.9505 H         1 UNK         0.0785 
    114 H114       33.0663  -52.7863  -57.5187 H         1 UNK         0.0798 
    115 H115       31.4923  -53.5244  -57.2579 H         1 UNK         0.0798 
    116 H116       32.8648  -54.0443  -56.2974 H         1 UNK         0.0798 
    117 H117       34.1416  -52.1175  -55.3587 H         1 UNK         0.3079 
    118 H118       35.2451  -51.5052  -53.1622 H         1 UNK         0.0794 
    119 H119       35.2397  -49.0541  -55.0193 H         1 UNK         0.0786 
    120 H120       35.8355  -50.6611  -55.4132 H         1 UNK         0.0786 
    121 H121       36.6716  -49.6915  -54.2188 H         1 UNK         0.0786 
    122 H122       34.5374  -48.6588  -52.6140 H         1 UNK         0.3032 
    123 H123       34.2106  -49.1646  -49.1962 H         1 UNK         0.1094 
    124 H124       36.8302  -48.0292  -50.3276 H         1 UNK         0.0794 
    125 H125       36.1363  -47.6427  -48.7517 H         1 UNK         0.0794 
    126 H126       36.7005  -49.2701  -49.0892 H         1 UNK         0.0794 
    127 H127       34.7436  -46.8611  -50.9199 H         1 UNK         0.3016 
@<TRIPOS>BOND
     1    1    2 1    
     2    1   67 1    
     3    1   68 1    
     4    1   69 1    
     5    2    3 2    
     6    2    4 am   BACKBONE|DICT|INTERRES
     7    4    5 1    
     8    4   70 1    
     9    5    6 1    
    10    5   65 1    
    11    5   71 1    
    12    6    7 1    
    13    6   72 1    
    14    6   73 1    
    15    7    8 1    
    16    8    9 1    
    17    8   74 1    
    18    8   75 1    
    19    9   10 ar   
    20    9   14 ar   
    21   10   11 ar   
    22   10   76 1    
    23   11   12 ar   
    24   11   48 1    
    25   12   13 ar   
    26   12   77 1    
    27   13   14 ar   
    28   13   15 1    
    29   14   78 1    
    30   15   16 1    
    31   15   79 1    
    32   15   80 1    
    33   16   17 1    
    34   17   18 1    
    35   17   81 1    
    36   17   82 1    
    37   18   19 1    
    38   18   22 1    
    39   18   83 1    
    40   19   20 am   BACKBONE|DICT|INTERRES
    41   19   21 2    
    42   20   84 1    
    43   20   85 1    
    44   22   23 am   BACKBONE|DICT|INTERRES
    45   22   86 1    
    46   23   24 2    
    47   23   25 1    
    48   25   26 1    
    49   25   27 1    
    50   25   87 1    
    51   26   88 1    
    52   26   89 1    
    53   26   90 1    
    54   27   28 am   BACKBONE|DICT|INTERRES
    55   27   91 1    
    56   28   29 2    
    57   28   30 1    
    58   30   31 1    
    59   30   32 1    
    60   30   92 1    
    61   31   93 1    
    62   31   94 1    
    63   31   95 1    
    64   32   33 am   BACKBONE|DICT|INTERRES
    65   32   96 1    
    66   33   34 2    
    67   33   35 1    
    68   35   36 1    
    69   35   37 1    
    70   35   97 1    
    71   36   98 1    
    72   36   99 1    
    73   36  100 1    
    74   37   38 am   BACKBONE|DICT|INTERRES
    75   37  101 1    
    76   38   39 2    
    77   38   40 1    
    78   40   41 1    
    79   40   42 1    
    80   40  102 1    
    81   41  103 1    
    82   41  104 1    
    83   41  105 1    
    84   42   43 am   BACKBONE|DICT|INTERRES
    85   42  106 1    
    86   43   44 2    
    87   43   45 1    
    88   45   46 1    
    89   45   49 1    
    90   45  107 1    
    91   46   47 1    
    92   46  108 1    
    93   46  109 1    
    94   47   48 1    
    95   48  110 1    
    96   48  111 1    
    97   49   50 am   BACKBONE|DICT|INTERRES
    98   49  112 1    
    99   50   51 2    
   100   50   52 1    
   101   52   53 1    
   102   52   54 1    
   103   52  113 1    
   104   53  114 1    
   105   53  115 1    
   106   53  116 1    
   107   54   55 am   BACKBONE|DICT|INTERRES
   108   54  117 1    
   109   55   56 2    
   110   55   57 1    
   111   57   58 1    
   112   57   59 1    
   113   57  118 1    
   114   58  119 1    
   115   58  120 1    
   116   58  121 1    
   117   59   60 am   BACKBONE|DICT|INTERRES
   118   59  122 1    
   119   60   61 2    
   120   60   62 1    
   121   62   63 1    
   122   62   64 1    
   123   62  123 1    
   124   63  124 1    
   125   63  125 1    
   126   63  126 1    
   127   64   65 am   BACKBONE|DICT|INTERRES
   128   64  127 1    
   129   65   66 2    
@<TRIPOS>SUBSTRUCTURE
     1 UNK         1 GROUP             0       ****    0 ROOT    
