@<TRIPOS>MOLECULE
3R134
127   129    1
SMALL
USER_CHARGES


@<TRIPOS>ATOM
      1 CA         37.0826  -43.0791  -53.0709 C.3       0 UNK        -0.1968 
      2 C          36.5296  -44.2555  -53.8622 C.2       0 UNK         0.4852 
      3 O          37.1979  -44.7487  -54.7725 O.2       0 UNK        -0.5359 
      4 N          35.3132  -44.7018  -53.5263 N.am      1 UNK        -0.4300 
      5 CA         34.6570  -45.8712  -54.1156 C.3       1 UNK         0.0863 
      6 C6         33.1135  -45.7936  -53.9837 C.3       11 UNK        -0.0953 
      7 S7         32.4815  -45.6509  -52.2733 S.3       11 UNK        -0.2369 
      8 C8         32.1610  -43.8624  -52.1189 C.3       11 UNK         0.0226 
      9 C9         30.8983  -43.4443  -52.8559 C.ar      11 UNK        -0.0699 
     10 C10        29.6473  -43.6653  -52.2764 C.ar      11 UNK        -0.0804 
     11 C11        28.4796  -43.3260  -52.9643 C.ar      11 UNK        -0.0871 
     12 C12        28.5729  -42.7059  -54.2141 C.ar      11 UNK        -0.1008 
     13 C13        29.8211  -42.4601  -54.8044 C.ar      11 UNK        -0.0735 
     14 C14        30.9767  -42.8387  -54.1135 C.ar      11 UNK        -0.0945 
     15 C15        29.9925  -41.7833  -56.1688 C.3       11 UNK         0.0169 
     16 S16        28.4589  -41.2363  -57.0015 S.3       11 UNK        -0.2669 
     17 C17        28.0683  -42.6406  -58.1073 C.3       11 UNK        -0.0850 
     18 CA         27.1821  -43.7507  -57.4658 C.3       10 UNK         0.0855 
     19 C          25.6830  -43.3774  -57.2401 C.2       10 UNK         0.5543 
     20 N          25.3569  -42.1050  -57.0644 N.am      10 UNK        -0.7343 
     21 O          24.8115  -44.2414  -57.1661 O.2       10 UNK        -0.5027 
     22 N          27.3475  -45.0420  -58.1456 N.am      10 UNK        -0.4495 
     23 C          26.9954  -45.3245  -59.4078 C.2       10 UNK         0.4903 
     24 O          26.5590  -44.4935  -60.2051 O.2       10 UNK        -0.4860 
     25 CA         27.1577  -46.7836  -59.8661 C.3       9 UNK         0.0227 
     26 CB         28.5481  -47.0011  -60.4810 C.3       9 UNK        -0.1964 
     27 N          26.9352  -47.7366  -58.7740 N.am      9 UNK        -0.4231 
     28 C          25.7207  -48.0761  -58.3161 C.2       9 UNK         0.5014 
     29 O          24.6735  -47.6898  -58.8396 O.2       9 UNK        -0.5270 
     30 CA         25.6414  -48.9666  -57.0576 C.3       8 UNK         0.0284 
     31 CB         24.3991  -49.8832  -57.0536 C.3       8 UNK        -0.1977 
     32 N          26.8549  -49.7360  -56.7654 N.am      8 UNK        -0.4342 
     33 C          27.4274  -50.6963  -57.5044 C.2       8 UNK         0.5039 
     34 O          26.9851  -51.0942  -58.5840 O.2       8 UNK        -0.5547 
     35 CA         28.7365  -51.2824  -56.9338 C.3       7 UNK         0.0281 
     36 CB         29.4179  -52.2843  -57.8897 C.3       7 UNK        -0.1963 
     37 N          29.6832  -50.2371  -56.5210 N.am      7 UNK        -0.4444 
     38 C          30.1705  -49.2442  -57.2804 C.2       7 UNK         0.5104 
     39 O          29.9291  -49.1070  -58.4792 O.2       7 UNK        -0.5100 
     40 CA         31.0308  -48.2024  -56.5425 C.3       6 UNK         0.0396 
     41 CB         31.4855  -47.0318  -57.4407 C.3       6 UNK        -0.1801 
     42 N          30.3559  -47.7049  -55.3392 N.am      6 UNK        -0.4747 
     43 C          29.1777  -47.0658  -55.2700 C.2       6 UNK         0.5012 
     44 O          28.4930  -46.7741  -56.2518 O.2       6 UNK        -0.5003 
     45 CA         28.6788  -46.7513  -53.8438 C.3       5 UNK         0.0782 
     46 C46        27.2621  -46.1099  -53.8139 C.3       11 UNK        -0.0868 
     47 S47        26.8612  -45.4530  -52.1575 S.3       11 UNK        -0.2515 
     48 C48        27.1141  -43.6562  -52.3735 C.3       11 UNK         0.0199 
     49 N          28.8113  -47.9188  -52.9571 N.am      5 UNK        -0.4607 
     50 C          28.2228  -49.1094  -53.1383 C.2       4 UNK         0.5031 
     51 O          27.4718  -49.3610  -54.0809 O.2       4 UNK        -0.5119 
     52 CA         28.5718  -50.2161  -52.1234 C.3       4 UNK         0.0263 
     53 CB         28.0402  -51.5985  -52.5599 C.3       4 UNK        -0.1967 
     54 N          30.0052  -50.3170  -51.8084 N.am      4 UNK        -0.4237 
     55 C          31.0208  -50.4302  -52.6771 C.2       3 UNK         0.4908 
     56 O          30.9081  -50.3362  -53.9032 O.2       3 UNK        -0.5102 
     57 CA         32.3944  -50.7367  -52.0730 C.3       3 UNK         0.0241 
     58 CB         32.5328  -52.2550  -51.8356 C.3       3 UNK        -0.1971 
     59 N          33.4178  -50.2569  -52.9976 N.am      3 UNK        -0.4139 
     60 C          34.7351  -50.2017  -52.7702 C.2       2 UNK         0.5016 
     61 O          35.2759  -50.5712  -51.7271 O.2       2 UNK        -0.5319 
     62 CA         35.5919  -49.6056  -53.8995 C.3       2 UNK         0.0286 
     63 CB         35.6230  -50.5353  -55.1252 C.3       2 UNK        -0.1963 
     64 N          35.1345  -48.2715  -54.3011 N.am      2 UNK        -0.4790 
     65 C          35.2309  -47.1790  -53.5292 C.2       1 UNK         0.5024 
     66 O          35.7363  -47.1808  -52.4033 O.2       1 UNK        -0.4888 
     67 H67        38.0080  -43.3652  -52.5718 H         1 UNK         0.0892 
     68 H68        37.2986  -42.2458  -53.7389 H         1 UNK         0.0892 
     69 H69        36.3817  -42.7317  -52.3120 H         1 UNK         0.0892 
     70 H70        34.8403  -44.3034  -52.7292 H         1 UNK         0.3107 
     71 H71        34.8863  -45.8737  -55.1838 H         1 UNK         0.0773 
     72 H72        32.7401  -44.9608  -54.5787 H         1 UNK         0.0680 
     73 H73        32.6651  -46.6816  -54.4263 H         1 UNK         0.0680 
     74 H74        32.0577  -43.6176  -51.0607 H         1 UNK         0.0650 
     75 H75        33.0213  -43.2963  -52.4775 H         1 UNK         0.0650 
     76 H76        29.5802  -44.1427  -51.3079 H         1 UNK         0.1397 
     77 H77        27.6617  -42.4256  -54.7209 H         1 UNK         0.1363 
     78 H78        31.9459  -42.6564  -54.5579 H         1 UNK         0.1355 
     79 H79        30.5543  -42.4445  -56.8298 H         1 UNK         0.0707 
     80 H80        30.6155  -40.8989  -56.0276 H         1 UNK         0.0707 
     81 H81        29.0096  -43.0700  -58.4531 H         1 UNK         0.1034 
     82 H82        27.5878  -42.2490  -59.0056 H         1 UNK         0.1034 
     83 H83        27.5755  -43.9451  -56.4706 H         1 UNK         0.0482 
     84 H84        26.0721  -41.3923  -57.0889 H         1 UNK         0.3460 
     85 H85        24.3946  -41.8557  -56.8991 H         1 UNK         0.3460 
     86 H86        27.6931  -45.7947  -57.5530 H         1 UNK         0.2989 
     87 H87        26.4181  -46.9729  -60.6470 H         1 UNK         0.0559 
     88 H88        28.6745  -48.0277  -60.8255 H         1 UNK         0.0848 
     89 H89        28.6998  -46.3481  -61.3414 H         1 UNK         0.0848 
     90 H90        29.3437  -46.7875  -59.7677 H         1 UNK         0.0848 
     91 H91        27.7542  -48.0913  -58.2950 H         1 UNK         0.3144 
     92 H92        25.5354  -48.2736  -56.2216 H         1 UNK         0.0727 
     93 H93        24.3484  -50.4775  -56.1413 H         1 UNK         0.0790 
     94 H94        24.4000  -50.5680  -57.9021 H         1 UNK         0.0790 
     95 H95        23.4792  -49.2997  -57.1080 H         1 UNK         0.0790 
     96 H96        27.2752  -49.5237  -55.8594 H         1 UNK         0.3215 
     97 H97        28.4601  -51.8242  -56.0281 H         1 UNK         0.0863 
     98 H98        30.3201  -52.7046  -57.4456 H         1 UNK         0.0808 
     99 H99        29.6949  -51.8174  -58.8354 H         1 UNK         0.0808 
    100 H100       28.7523  -53.1167  -58.1211 H         1 UNK         0.0808 
    101 H101       29.9663  -50.2542  -55.5425 H         1 UNK         0.3118 
    102 H102       31.9258  -48.7275  -56.2059 H         1 UNK         0.0546 
    103 H103       30.6422  -46.4465  -57.8064 H         1 UNK         0.0828 
    104 H104       32.0297  -47.3967  -58.3125 H         1 UNK         0.0828 
    105 H105       32.1500  -46.3546  -56.9055 H         1 UNK         0.0828 
    106 H106       30.7750  -47.9883  -54.4645 H         1 UNK         0.3005 
    107 H107       29.3868  -46.0119  -53.4741 H         1 UNK         0.1257 
    108 H108       27.1789  -45.2999  -54.5392 H         1 UNK         0.0775 
    109 H109       26.5004  -46.8382  -54.0960 H         1 UNK         0.0775 
    110 H110       26.3128  -43.2631  -53.0013 H         1 UNK         0.0840 
    111 H111       27.0133  -43.1641  -51.4052 H         1 UNK         0.0840 
    112 H112       29.4150  -47.7999  -52.1562 H         1 UNK         0.2987 
    113 H113       28.0649  -49.9444  -51.1962 H         1 UNK         0.0785 
    114 H114       28.2395  -52.3569  -51.8029 H         1 UNK         0.0798 
    115 H115       28.4981  -51.9295  -53.4925 H         1 UNK         0.0798 
    116 H116       26.9607  -51.5755  -52.7154 H         1 UNK         0.0798 
    117 H117       30.2217  -50.3843  -50.8230 H         1 UNK         0.3079 
    118 H118       32.4977  -50.1993  -51.1282 H         1 UNK         0.0794 
    119 H119       31.7330  -52.6287  -51.1947 H         1 UNK         0.0786 
    120 H120       33.4732  -52.5049  -51.3450 H         1 UNK         0.0786 
    121 H121       32.4866  -52.8122  -52.7723 H         1 UNK         0.0786 
    122 H122       33.0488  -49.9383  -53.8840 H         1 UNK         0.3032 
    123 H123       36.6130  -49.5142  -53.5210 H         1 UNK         0.1094 
    124 H124       34.6416  -50.6371  -55.5899 H         1 UNK         0.0794 
    125 H125       35.9560  -51.5360  -54.8456 H         1 UNK         0.0794 
    126 H126       36.3151  -50.1671  -55.8828 H         1 UNK         0.0794 
    127 H127       34.7252  -48.1882  -55.2205 H         1 UNK         0.3016 
@<TRIPOS>BOND
     1    1    2 1    
     2    1   67 1    
     3    1   68 1    
     4    1   69 1    
     5    2    3 2    
     6    2    4 am   BACKBONE|DICT|INTERRES
     7    4    5 1    
     8    4   70 1    
     9    5    6 1    
    10    5   65 1    
    11    5   71 1    
    12    6    7 1    
    13    6   72 1    
    14    6   73 1    
    15    7    8 1    
    16    8    9 1    
    17    8   74 1    
    18    8   75 1    
    19    9   10 ar   
    20    9   14 ar   
    21   10   11 ar   
    22   10   76 1    
    23   11   12 ar   
    24   11   48 1    
    25   12   13 ar   
    26   12   77 1    
    27   13   14 ar   
    28   13   15 1    
    29   14   78 1    
    30   15   16 1    
    31   15   79 1    
    32   15   80 1    
    33   16   17 1    
    34   17   18 1    
    35   17   81 1    
    36   17   82 1    
    37   18   19 1    
    38   18   22 1    
    39   18   83 1    
    40   19   20 am   BACKBONE|DICT|INTERRES
    41   19   21 2    
    42   20   84 1    
    43   20   85 1    
    44   22   23 am   BACKBONE|DICT|INTERRES
    45   22   86 1    
    46   23   24 2    
    47   23   25 1    
    48   25   26 1    
    49   25   27 1    
    50   25   87 1    
    51   26   88 1    
    52   26   89 1    
    53   26   90 1    
    54   27   28 am   BACKBONE|DICT|INTERRES
    55   27   91 1    
    56   28   29 2    
    57   28   30 1    
    58   30   31 1    
    59   30   32 1    
    60   30   92 1    
    61   31   93 1    
    62   31   94 1    
    63   31   95 1    
    64   32   33 am   BACKBONE|DICT|INTERRES
    65   32   96 1    
    66   33   34 2    
    67   33   35 1    
    68   35   36 1    
    69   35   37 1    
    70   35   97 1    
    71   36   98 1    
    72   36   99 1    
    73   36  100 1    
    74   37   38 am   BACKBONE|DICT|INTERRES
    75   37  101 1    
    76   38   39 2    
    77   38   40 1    
    78   40   41 1    
    79   40   42 1    
    80   40  102 1    
    81   41  103 1    
    82   41  104 1    
    83   41  105 1    
    84   42   43 am   BACKBONE|DICT|INTERRES
    85   42  106 1    
    86   43   44 2    
    87   43   45 1    
    88   45   46 1    
    89   45   49 1    
    90   45  107 1    
    91   46   47 1    
    92   46  108 1    
    93   46  109 1    
    94   47   48 1    
    95   48  110 1    
    96   48  111 1    
    97   49   50 am   BACKBONE|DICT|INTERRES
    98   49  112 1    
    99   50   51 2    
   100   50   52 1    
   101   52   53 1    
   102   52   54 1    
   103   52  113 1    
   104   53  114 1    
   105   53  115 1    
   106   53  116 1    
   107   54   55 am   BACKBONE|DICT|INTERRES
   108   54  117 1    
   109   55   56 2    
   110   55   57 1    
   111   57   58 1    
   112   57   59 1    
   113   57  118 1    
   114   58  119 1    
   115   58  120 1    
   116   58  121 1    
   117   59   60 am   BACKBONE|DICT|INTERRES
   118   59  122 1    
   119   60   61 2    
   120   60   62 1    
   121   62   63 1    
   122   62   64 1    
   123   62  123 1    
   124   63  124 1    
   125   63  125 1    
   126   63  126 1    
   127   64   65 am   BACKBONE|DICT|INTERRES
   128   64  127 1    
   129   65   66 2    
@<TRIPOS>SUBSTRUCTURE
     1 UNK         1 GROUP             0       ****    0 ROOT    
