@<TRIPOS>MOLECULE
3R134
127   129    1
SMALL
USER_CHARGES


@<TRIPOS>ATOM
      1 CA         26.1809  -45.7635  -51.5765 C.3       0 UNK        -0.1968 
      2 C          27.6356  -45.4968  -51.2207 C.2       0 UNK         0.4852 
      3 O          27.9063  -44.8027  -50.2368 O.2       0 UNK        -0.5359 
      4 N          28.5655  -46.0452  -52.0112 N.am      1 UNK        -0.4300 
      5 CA         30.0092  -45.9917  -51.7790 C.3       1 UNK         0.0863 
      6 C6         30.7106  -45.0822  -52.8259 C.3       11 UNK        -0.0953 
      7 S7         32.5379  -45.1239  -52.8099 S.3       11 UNK        -0.2369 
      8 C8         32.9668  -43.5881  -53.6933 C.3       11 UNK         0.0226 
      9 C9         32.7772  -43.7045  -55.2010 C.ar      11 UNK        -0.0699 
     10 C10        33.7410  -44.3498  -55.9836 C.ar      11 UNK        -0.0804 
     11 C11        33.5862  -44.4501  -57.3713 C.ar      11 UNK        -0.0871 
     12 C12        32.4554  -43.8917  -57.9748 C.ar      11 UNK        -0.1008 
     13 C13        31.4894  -43.2322  -57.2060 C.ar      11 UNK        -0.0735 
     14 C14        31.6583  -43.1385  -55.8201 C.ar      11 UNK        -0.0945 
     15 C15        30.2726  -42.6167  -57.8817 C.3       11 UNK         0.0169 
     16 S16        28.7838  -43.6495  -57.6872 S.3       11 UNK        -0.2669 
     17 C17        27.9530  -42.8678  -56.2601 C.3       11 UNK        -0.0850 
     18 CA         27.4225  -43.8736  -55.1927 C.3       10 UNK         0.0855 
     19 C          26.7782  -43.1259  -53.9904 C.2       10 UNK         0.5543 
     20 N          27.5738  -42.3742  -53.2411 N.am      10 UNK        -0.7343 
     21 O          25.5819  -43.2135  -53.7159 O.2       10 UNK        -0.5027 
     22 N          26.5744  -44.9457  -55.7467 N.am      10 UNK        -0.4495 
     23 C          25.4609  -44.7903  -56.4792 C.2       10 UNK         0.4903 
     24 O          24.9962  -43.7014  -56.8183 O.2       10 UNK        -0.4860 
     25 CA         24.7384  -46.0690  -56.9406 C.3       9 UNK         0.0227 
     26 CB         25.1771  -46.4417  -58.3661 C.3       9 UNK        -0.1964 
     27 N          24.9460  -47.2123  -56.0476 N.am      9 UNK        -0.4231 
     28 C          24.3704  -47.3409  -54.8421 C.2       9 UNK         0.5014 
     29 O          23.5734  -46.5233  -54.3813 O.2       9 UNK        -0.5270 
     30 CA         24.7158  -48.5858  -53.9982 C.3       8 UNK         0.0284 
     31 CB         23.5172  -49.5487  -53.9478 C.3       8 UNK        -0.1977 
     32 N          25.9008  -49.3298  -54.4364 N.am      8 UNK        -0.4342 
     33 C          27.1552  -48.8626  -54.4412 C.2       8 UNK         0.5039 
     34 O          27.4458  -47.7099  -54.1041 O.2       8 UNK        -0.5547 
     35 CA         28.2633  -49.8251  -54.9309 C.3       7 UNK         0.0281 
     36 CB         27.7449  -51.0934  -55.6476 C.3       7 UNK        -0.1963 
     37 N          29.2382  -49.1213  -55.7672 N.am      7 UNK        -0.4444 
     38 C          28.9625  -48.4101  -56.8704 C.2       7 UNK         0.5104 
     39 O          27.8870  -48.4465  -57.4698 O.2       7 UNK        -0.5100 
     40 CA         30.0509  -47.4437  -57.3366 C.3       6 UNK         0.0396 
     41 CB         30.4440  -46.5081  -56.1916 C.3       6 UNK        -0.1801 
     42 N          31.2469  -48.1513  -57.7683 N.am      6 UNK        -0.4747 
     43 C          31.7669  -48.0968  -59.0013 C.2       6 UNK         0.5012 
     44 O          31.2239  -47.5291  -59.9506 O.2       6 UNK        -0.5003 
     45 CA         33.1394  -48.7686  -59.2244 C.3       5 UNK         0.0782 
     46 C46        34.2557  -47.7081  -59.4281 C.3       11 UNK        -0.0868 
     47 S47        34.8129  -46.9029  -57.8796 S.3       11 UNK        -0.2515 
     48 C48        34.6629  -45.1172  -58.2195 C.3       11 UNK         0.0199 
     49 N          33.4910  -49.7263  -58.1705 N.am      5 UNK        -0.4607 
     50 C          32.8862  -50.8995  -57.9481 C.2       4 UNK         0.5031 
     51 O          32.0331  -51.3785  -58.6948 O.2       4 UNK        -0.5119 
     52 CA         33.2784  -51.6567  -56.6655 C.3       4 UNK         0.0263 
     53 CB         34.2319  -52.8154  -56.9996 C.3       4 UNK        -0.1967 
     54 N          33.8870  -50.8177  -55.6236 N.am      4 UNK        -0.4237 
     55 C          33.2693  -49.8255  -54.9670 C.2       3 UNK         0.4908 
     56 O          32.1196  -49.4498  -55.2114 O.2       3 UNK        -0.5102 
     57 CA         34.1019  -49.1011  -53.8959 C.3       3 UNK         0.0241 
     58 CB         34.7104  -47.8107  -54.4610 C.3       3 UNK        -0.1971 
     59 N          33.2968  -48.7649  -52.7251 N.am      3 UNK        -0.4139 
     60 C          32.8460  -49.6518  -51.8289 C.2       2 UNK         0.5016 
     61 O          33.1050  -50.8559  -51.8705 O.2       2 UNK        -0.5319 
     62 CA         31.9841  -49.1137  -50.6706 C.3       2 UNK         0.0286 
     63 CB         32.7795  -49.1328  -49.3544 C.3       2 UNK        -0.1963 
     64 N          31.4519  -47.7619  -50.8812 N.am      2 UNK        -0.4790 
     65 C          30.5027  -47.4508  -51.7737 C.2       1 UNK         0.5024 
     66 O          30.0192  -48.2688  -52.5567 O.2       1 UNK        -0.4888 
     67 H67        25.5652  -44.8972  -51.3354 H         1 UNK         0.0892 
     68 H68        26.0620  -45.9649  -52.6403 H         1 UNK         0.0892 
     69 H69        25.8045  -46.6194  -51.0172 H         1 UNK         0.0892 
     70 H70        28.2802  -46.6788  -52.7615 H         1 UNK         0.3107 
     71 H71        30.2132  -45.5791  -50.7885 H         1 UNK         0.0773 
     72 H72        30.3894  -44.0516  -52.6657 H         1 UNK         0.0680 
     73 H73        30.3803  -45.3366  -53.8283 H         1 UNK         0.0680 
     74 H74        32.3829  -42.7593  -53.2912 H         1 UNK         0.0650 
     75 H75        34.0101  -43.3495  -53.4834 H         1 UNK         0.0650 
     76 H76        34.6154  -44.7757  -55.5113 H         1 UNK         0.1397 
     77 H77        32.3284  -43.9652  -59.0460 H         1 UNK         0.1363 
     78 H78        30.9176  -42.6287  -55.2222 H         1 UNK         0.1355 
     79 H79        30.4627  -42.4979  -58.9486 H         1 UNK         0.0707 
     80 H80        30.0978  -41.6105  -57.5009 H         1 UNK         0.0707 
     81 H81        27.1402  -42.2509  -56.6428 H         1 UNK         0.1034 
     82 H82        28.6439  -42.1669  -55.7937 H         1 UNK         0.1034 
     83 H83        28.2817  -44.3957  -54.7746 H         1 UNK         0.0482 
     84 H84        28.5603  -42.2901  -53.4302 H         1 UNK         0.3460 
     85 H85        27.1748  -41.8859  -52.4557 H         1 UNK         0.3460 
     86 H86        26.8401  -45.8857  -55.4845 H         1 UNK         0.2989 
     87 H87        23.6684  -45.8521  -56.9672 H         1 UNK         0.0559 
     88 H88        26.2522  -46.6130  -58.4266 H         1 UNK         0.0848 
     89 H89        24.9410  -45.6389  -59.0656 H         1 UNK         0.0848 
     90 H90        24.6707  -47.3394  -58.7203 H         1 UNK         0.0848 
     91 H91        25.6080  -47.9151  -56.3485 H         1 UNK         0.3144 
     92 H92        24.9101  -48.2349  -52.9828 H         1 UNK         0.0727 
     93 H93        23.2852  -49.9561  -54.9328 H         1 UNK         0.0790 
     94 H94        22.6215  -49.0406  -53.5873 H         1 UNK         0.0790 
     95 H95        23.7045  -50.3836  -53.2720 H         1 UNK         0.0790 
     96 H96        25.7471  -50.2770  -54.7515 H         1 UNK         0.3215 
     97 H97        28.8036  -50.1446  -54.0390 H         1 UNK         0.0863 
     98 H98        27.1258  -50.8548  -56.5133 H         1 UNK         0.0808 
     99 H99        27.1575  -51.7198  -54.9755 H         1 UNK         0.0808 
    100 H100       28.5753  -51.7057  -55.9998 H         1 UNK         0.0808 
    101 H101       30.1660  -49.0312  -55.3620 H         1 UNK         0.3118 
    102 H102       29.6399  -46.8341  -58.1441 H         1 UNK         0.0546 
    103 H103       29.5854  -45.9211  -55.8728 H         1 UNK         0.0828 
    104 H104       31.2190  -45.8203  -56.5094 H         1 UNK         0.0828 
    105 H105       30.8314  -47.0411  -55.3229 H         1 UNK         0.0828 
    106 H106       31.7373  -48.6730  -57.0491 H         1 UNK         0.3005 
    107 H107       33.0451  -49.3318  -60.1558 H         1 UNK         0.1257 
    108 H108       33.9482  -46.9592  -60.1603 H         1 UNK         0.0775 
    109 H109       35.1290  -48.1934  -59.8668 H         1 UNK         0.0775 
    110 H110       35.6210  -44.6454  -57.9969 H         1 UNK         0.0840 
    111 H111       34.4881  -44.9408  -59.2813 H         1 UNK         0.0840 
    112 H112       34.1842  -49.4064  -57.5098 H         1 UNK         0.2987 
    113 H113       32.3597  -52.0779  -56.2514 H         1 UNK         0.0785 
    114 H114       34.4445  -53.4222  -56.1192 H         1 UNK         0.0798 
    115 H115       33.7947  -53.4783  -57.7479 H         1 UNK         0.0798 
    116 H116       35.1810  -52.4553  -57.3988 H         1 UNK         0.0798 
    117 H117       34.8377  -51.0449  -55.3689 H         1 UNK         0.3079 
    118 H118       34.9143  -49.7539  -53.5694 H         1 UNK         0.0794 
    119 H119       35.2455  -47.2497  -53.6947 H         1 UNK         0.0786 
    120 H120       33.9446  -47.1567  -54.8813 H         1 UNK         0.0786 
    121 H121       35.4264  -48.0353  -55.2513 H         1 UNK         0.0786 
    122 H122       32.9990  -47.8042  -52.6356 H         1 UNK         0.3032 
    123 H123       31.1368  -49.7957  -50.5679 H         1 UNK         0.1094 
    124 H124       32.1559  -48.8437  -48.5083 H         1 UNK         0.0794 
    125 H125       33.1632  -50.1321  -49.1431 H         1 UNK         0.0794 
    126 H126       33.6349  -48.4569  -49.3901 H         1 UNK         0.0794 
    127 H127       31.8186  -47.0331  -50.2846 H         1 UNK         0.3016 
@<TRIPOS>BOND
     1    1    2 1    
     2    1   67 1    
     3    1   68 1    
     4    1   69 1    
     5    2    3 2    
     6    2    4 am   BACKBONE|DICT|INTERRES
     7    4    5 1    
     8    4   70 1    
     9    5    6 1    
    10    5   65 1    
    11    5   71 1    
    12    6    7 1    
    13    6   72 1    
    14    6   73 1    
    15    7    8 1    
    16    8    9 1    
    17    8   74 1    
    18    8   75 1    
    19    9   10 ar   
    20    9   14 ar   
    21   10   11 ar   
    22   10   76 1    
    23   11   12 ar   
    24   11   48 1    
    25   12   13 ar   
    26   12   77 1    
    27   13   14 ar   
    28   13   15 1    
    29   14   78 1    
    30   15   16 1    
    31   15   79 1    
    32   15   80 1    
    33   16   17 1    
    34   17   18 1    
    35   17   81 1    
    36   17   82 1    
    37   18   19 1    
    38   18   22 1    
    39   18   83 1    
    40   19   20 am   BACKBONE|DICT|INTERRES
    41   19   21 2    
    42   20   84 1    
    43   20   85 1    
    44   22   23 am   BACKBONE|DICT|INTERRES
    45   22   86 1    
    46   23   24 2    
    47   23   25 1    
    48   25   26 1    
    49   25   27 1    
    50   25   87 1    
    51   26   88 1    
    52   26   89 1    
    53   26   90 1    
    54   27   28 am   BACKBONE|DICT|INTERRES
    55   27   91 1    
    56   28   29 2    
    57   28   30 1    
    58   30   31 1    
    59   30   32 1    
    60   30   92 1    
    61   31   93 1    
    62   31   94 1    
    63   31   95 1    
    64   32   33 am   BACKBONE|DICT|INTERRES
    65   32   96 1    
    66   33   34 2    
    67   33   35 1    
    68   35   36 1    
    69   35   37 1    
    70   35   97 1    
    71   36   98 1    
    72   36   99 1    
    73   36  100 1    
    74   37   38 am   BACKBONE|DICT|INTERRES
    75   37  101 1    
    76   38   39 2    
    77   38   40 1    
    78   40   41 1    
    79   40   42 1    
    80   40  102 1    
    81   41  103 1    
    82   41  104 1    
    83   41  105 1    
    84   42   43 am   BACKBONE|DICT|INTERRES
    85   42  106 1    
    86   43   44 2    
    87   43   45 1    
    88   45   46 1    
    89   45   49 1    
    90   45  107 1    
    91   46   47 1    
    92   46  108 1    
    93   46  109 1    
    94   47   48 1    
    95   48  110 1    
    96   48  111 1    
    97   49   50 am   BACKBONE|DICT|INTERRES
    98   49  112 1    
    99   50   51 2    
   100   50   52 1    
   101   52   53 1    
   102   52   54 1    
   103   52  113 1    
   104   53  114 1    
   105   53  115 1    
   106   53  116 1    
   107   54   55 am   BACKBONE|DICT|INTERRES
   108   54  117 1    
   109   55   56 2    
   110   55   57 1    
   111   57   58 1    
   112   57   59 1    
   113   57  118 1    
   114   58  119 1    
   115   58  120 1    
   116   58  121 1    
   117   59   60 am   BACKBONE|DICT|INTERRES
   118   59  122 1    
   119   60   61 2    
   120   60   62 1    
   121   62   63 1    
   122   62   64 1    
   123   62  123 1    
   124   63  124 1    
   125   63  125 1    
   126   63  126 1    
   127   64   65 am   BACKBONE|DICT|INTERRES
   128   64  127 1    
   129   65   66 2    
@<TRIPOS>SUBSTRUCTURE
     1 UNK         1 GROUP             0       ****    0 ROOT    
