@<TRIPOS>MOLECULE
3R134
127   129    1
SMALL
USER_CHARGES


@<TRIPOS>ATOM
      1 CA         38.2438  -45.0872  -50.8696 C.3       0 UNK        -0.1968 
      2 C          36.9281  -45.2718  -50.1163 C.2       0 UNK         0.4852 
      3 O          36.9259  -45.2147  -48.8872 O.2       0 UNK        -0.5359 
      4 N          35.7890  -45.4784  -50.7931 N.am      1 UNK        -0.4300 
      5 CA         35.6382  -45.6544  -52.2418 C.3       1 UNK         0.0863 
      6 C6         34.1748  -45.3870  -52.6781 C.3       11 UNK        -0.0953 
      7 S7         34.0520  -44.9086  -54.4368 S.3       11 UNK        -0.2369 
      8 C8         33.2021  -43.3016  -54.3414 C.3       11 UNK         0.0226 
      9 C9         31.6921  -43.4747  -54.2677 C.ar      11 UNK        -0.0699 
     10 C10        31.0391  -43.5399  -53.0332 C.ar      11 UNK        -0.0804 
     11 C11        29.6503  -43.6975  -52.9724 C.ar      11 UNK        -0.0871 
     12 C12        28.9127  -43.7800  -54.1575 C.ar      11 UNK        -0.1008 
     13 C13        29.5573  -43.7264  -55.3959 C.ar      11 UNK        -0.0735 
     14 C14        30.9451  -43.5691  -55.4451 C.ar      11 UNK        -0.0945 
     15 C15        28.7644  -43.8756  -56.6820 C.3       11 UNK         0.0169 
     16 S16        27.9914  -42.3103  -57.1940 S.3       11 UNK        -0.2669 
     17 C17        27.8337  -42.5760  -58.9956 C.3       11 UNK        -0.0850 
     18 CA         26.4915  -43.2207  -59.4333 C.3       10 UNK         0.0855 
     19 C          26.4459  -43.3450  -60.9854 C.2       10 UNK         0.5543 
     20 N          26.5995  -44.5338  -61.5596 N.am      10 UNK        -0.7343 
     21 O          26.2716  -42.3437  -61.6753 O.2       10 UNK        -0.5027 
     22 N          26.2373  -44.4869  -58.7306 N.am      10 UNK        -0.4495 
     23 C          25.0752  -45.1495  -58.7237 C.2       10 UNK         0.4903 
     24 O          24.0308  -44.6913  -59.1895 O.2       10 UNK        -0.4860 
     25 CA         25.0688  -46.5580  -58.0921 C.3       9 UNK         0.0227 
     26 CB         24.1984  -47.5431  -58.8992 C.3       9 UNK        -0.1964 
     27 N          26.3936  -47.1478  -57.8414 N.am      9 UNK        -0.4231 
     28 C          27.3608  -47.4252  -58.7318 C.2       9 UNK         0.5014 
     29 O          27.3212  -47.0930  -59.9179 O.2       9 UNK        -0.5270 
     30 CA         28.5784  -48.2071  -58.2064 C.3       8 UNK         0.0284 
     31 CB         29.5740  -47.2809  -57.4910 C.3       8 UNK        -0.1977 
     32 N          28.1968  -49.2940  -57.3040 N.am      8 UNK        -0.4342 
     33 C          27.5378  -50.3999  -57.6784 C.2       8 UNK         0.5039 
     34 O          27.2388  -50.6653  -58.8433 O.2       8 UNK        -0.5547 
     35 CA         27.1275  -51.3646  -56.5572 C.3       7 UNK         0.0281 
     36 CB         28.3122  -52.2467  -56.1285 C.3       7 UNK        -0.1963 
     37 N          26.5961  -50.6361  -55.4032 N.am      7 UNK        -0.4444 
     38 C          25.3476  -50.1518  -55.3329 C.2       7 UNK         0.5104 
     39 O          24.4940  -50.3331  -56.2010 O.2       7 UNK        -0.5100 
     40 CA         24.9756  -49.3305  -54.0849 C.3       6 UNK         0.0396 
     41 CB         24.2575  -50.2186  -53.0564 C.3       6 UNK        -0.1801 
     42 N          26.1214  -48.6818  -53.4425 N.am      6 UNK        -0.4747 
     43 C          26.7818  -47.6278  -53.9437 C.2       6 UNK         0.5012 
     44 O          26.5061  -47.0900  -55.0156 O.2       6 UNK        -0.5003 
     45 CA         27.9904  -47.1274  -53.1297 C.3       5 UNK         0.0782 
     46 C46        27.5147  -46.1986  -51.9846 C.3       11 UNK        -0.0868 
     47 S47        28.8882  -45.4936  -51.0099 S.3       11 UNK        -0.2515 
     48 C48        28.9525  -43.7800  -51.6237 C.3       11 UNK         0.0199 
     49 N          28.8418  -48.2225  -52.6466 N.am      5 UNK        -0.4607 
     50 C          29.4234  -49.1446  -53.4229 C.2       4 UNK         0.5031 
     51 O          29.2172  -49.2562  -54.6341 O.2       4 UNK        -0.5119 
     52 CA         30.3624  -50.1388  -52.7235 C.3       4 UNK         0.0263 
     53 CB         29.6130  -51.4365  -52.3813 C.3       4 UNK        -0.1967 
     54 N          31.5190  -50.4490  -53.5668 N.am      4 UNK        -0.4237 
     55 C          32.4728  -49.5617  -53.8764 C.2       3 UNK         0.4908 
     56 O          32.5249  -48.4204  -53.4124 O.2       3 UNK        -0.5102 
     57 CA         33.5335  -50.0174  -54.8837 C.3       3 UNK         0.0241 
     58 CB         32.9850  -49.9629  -56.3210 C.3       3 UNK        -0.1971 
     59 N          34.6855  -49.1275  -54.7715 N.am      3 UNK        -0.4139 
     60 C          35.9699  -49.4951  -54.8145 C.2       2 UNK         0.5016 
     61 O          36.3431  -50.6480  -55.0368 O.2       2 UNK        -0.5319 
     62 CA         37.0287  -48.4000  -54.5763 C.3       2 UNK         0.0286 
     63 CB         37.7261  -48.0330  -55.8968 C.3       2 UNK        -0.1963 
     64 N          36.5055  -47.1730  -53.9626 N.am      2 UNK        -0.4790 
     65 C          36.1239  -47.0543  -52.6840 C.2       1 UNK         0.5024 
     66 O          36.1495  -47.9874  -51.8782 O.2       1 UNK        -0.4888 
     67 H67        38.1799  -44.2598  -51.5753 H         1 UNK         0.0892 
     68 H68        39.0518  -44.8615  -50.1738 H         1 UNK         0.0892 
     69 H69        38.5180  -45.9934  -51.4082 H         1 UNK         0.0892 
     70 H70        34.9452  -45.6265  -50.2589 H         1 UNK         0.3107 
     71 H71        36.2718  -44.9096  -52.7267 H         1 UNK         0.0773 
     72 H72        33.7571  -44.5791  -52.0767 H         1 UNK         0.0680 
     73 H73        33.5326  -46.2473  -52.4872 H         1 UNK         0.0680 
     74 H74        33.4595  -42.7215  -55.2288 H         1 UNK         0.0650 
     75 H75        33.5704  -42.7261  -53.4909 H         1 UNK         0.0650 
     76 H76        31.6112  -43.4746  -52.1181 H         1 UNK         0.1397 
     77 H77        27.8386  -43.9004  -54.1201 H         1 UNK         0.1363 
     78 H78        31.4484  -43.5292  -56.4016 H         1 UNK         0.1355 
     79 H79        29.4216  -44.2396  -57.4719 H         1 UNK         0.0707 
     80 H80        27.9906  -44.6321  -56.5451 H         1 UNK         0.0707 
     81 H81        27.9418  -41.5983  -59.4698 H         1 UNK         0.1034 
     82 H82        28.6796  -43.1648  -59.3552 H         1 UNK         0.1034 
     83 H83        25.6897  -42.5346  -59.1535 H         1 UNK         0.0482 
     84 H84        26.7608  -45.3623  -60.9980 H         1 UNK         0.3460 
     85 H85        26.5678  -44.6056  -62.5640 H         1 UNK         0.3460 
     86 H86        27.0425  -44.9493  -58.3415 H         1 UNK         0.2989 
     87 H87        24.6085  -46.4411  -57.1100 H         1 UNK         0.0559 
     88 H88        24.5725  -47.6718  -59.9155 H         1 UNK         0.0848 
     89 H89        23.1682  -47.1928  -58.9731 H         1 UNK         0.0848 
     90 H90        24.1703  -48.5251  -58.4263 H         1 UNK         0.0848 
     91 H91        26.5630  -47.3791  -56.8643 H         1 UNK         0.3144 
     92 H92        29.0847  -48.6480  -59.0677 H         1 UNK         0.0727 
     93 H93        29.1417  -46.8333  -56.5955 H         1 UNK         0.0790 
     94 H94        29.8989  -46.4750  -58.1495 H         1 UNK         0.0790 
     95 H95        30.4673  -47.8257  -57.1851 H         1 UNK         0.0790 
     96 H96        28.4638  -49.1970  -56.3255 H         1 UNK         0.3215 
     97 H97        26.3465  -52.0212  -56.9479 H         1 UNK         0.0863 
     98 H98        28.0229  -52.9456  -55.3437 H         1 UNK         0.0808 
     99 H99        29.1530  -51.6569  -55.7636 H         1 UNK         0.0808 
    100 H100       28.6757  -52.8386  -56.9696 H         1 UNK         0.0808 
    101 H101       27.2525  -50.3883  -54.6760 H         1 UNK         0.3118 
    102 H102       24.2801  -48.5507  -54.4033 H         1 UNK         0.0546 
    103 H103       24.9052  -51.0138  -52.6852 H         1 UNK         0.0828 
    104 H104       23.3796  -50.6936  -53.4969 H         1 UNK         0.0828 
    105 H105       23.9127  -49.6375  -52.2010 H         1 UNK         0.0828 
    106 H106       26.4304  -49.0664  -52.5610 H         1 UNK         0.3005 
    107 H107       28.6053  -46.5401  -53.8148 H         1 UNK         0.1257 
    108 H108       26.8726  -46.7474  -51.2929 H         1 UNK         0.0775 
    109 H109       26.8994  -45.3872  -52.3777 H         1 UNK         0.0775 
    110 H110       27.9465  -43.3612  -51.6811 H         1 UNK         0.0840 
    111 H111       29.4885  -43.1691  -50.8956 H         1 UNK         0.0840 
    112 H112       29.0678  -48.1965  -51.6626 H         1 UNK         0.2987 
    113 H113       30.7274  -49.6904  -51.7967 H         1 UNK         0.0785 
    114 H114       28.7567  -51.2357  -51.7358 H         1 UNK         0.0798 
    115 H115       30.2575  -52.1376  -51.8506 H         1 UNK         0.0798 
    116 H116       29.2373  -51.9374  -53.2735 H         1 UNK         0.0798 
    117 H117       31.5262  -51.3539  -54.0139 H         1 UNK         0.3079 
    118 H118       33.8221  -51.0414  -54.6364 H         1 UNK         0.0794 
    119 H119       32.1108  -50.6050  -56.4367 H         1 UNK         0.0786 
    120 H120       33.7314  -50.2982  -57.0413 H         1 UNK         0.0786 
    121 H121       32.6851  -48.9512  -56.5972 H         1 UNK         0.0786 
    122 H122       34.4569  -48.1779  -54.5052 H         1 UNK         0.3032 
    123 H123       37.7762  -48.8248  -53.9021 H         1 UNK         0.1094 
    124 H124       38.5379  -47.3236  -55.7343 H         1 UNK         0.0794 
    125 H125       38.1609  -48.9156  -56.3683 H         1 UNK         0.0794 
    126 H126       37.0303  -47.5919  -56.6118 H         1 UNK         0.0794 
    127 H127       36.4237  -46.3667  -54.5675 H         1 UNK         0.3016 
@<TRIPOS>BOND
     1    1    2 1    
     2    1   67 1    
     3    1   68 1    
     4    1   69 1    
     5    2    3 2    
     6    2    4 am   BACKBONE|DICT|INTERRES
     7    4    5 1    
     8    4   70 1    
     9    5    6 1    
    10    5   65 1    
    11    5   71 1    
    12    6    7 1    
    13    6   72 1    
    14    6   73 1    
    15    7    8 1    
    16    8    9 1    
    17    8   74 1    
    18    8   75 1    
    19    9   10 ar   
    20    9   14 ar   
    21   10   11 ar   
    22   10   76 1    
    23   11   12 ar   
    24   11   48 1    
    25   12   13 ar   
    26   12   77 1    
    27   13   14 ar   
    28   13   15 1    
    29   14   78 1    
    30   15   16 1    
    31   15   79 1    
    32   15   80 1    
    33   16   17 1    
    34   17   18 1    
    35   17   81 1    
    36   17   82 1    
    37   18   19 1    
    38   18   22 1    
    39   18   83 1    
    40   19   20 am   BACKBONE|DICT|INTERRES
    41   19   21 2    
    42   20   84 1    
    43   20   85 1    
    44   22   23 am   BACKBONE|DICT|INTERRES
    45   22   86 1    
    46   23   24 2    
    47   23   25 1    
    48   25   26 1    
    49   25   27 1    
    50   25   87 1    
    51   26   88 1    
    52   26   89 1    
    53   26   90 1    
    54   27   28 am   BACKBONE|DICT|INTERRES
    55   27   91 1    
    56   28   29 2    
    57   28   30 1    
    58   30   31 1    
    59   30   32 1    
    60   30   92 1    
    61   31   93 1    
    62   31   94 1    
    63   31   95 1    
    64   32   33 am   BACKBONE|DICT|INTERRES
    65   32   96 1    
    66   33   34 2    
    67   33   35 1    
    68   35   36 1    
    69   35   37 1    
    70   35   97 1    
    71   36   98 1    
    72   36   99 1    
    73   36  100 1    
    74   37   38 am   BACKBONE|DICT|INTERRES
    75   37  101 1    
    76   38   39 2    
    77   38   40 1    
    78   40   41 1    
    79   40   42 1    
    80   40  102 1    
    81   41  103 1    
    82   41  104 1    
    83   41  105 1    
    84   42   43 am   BACKBONE|DICT|INTERRES
    85   42  106 1    
    86   43   44 2    
    87   43   45 1    
    88   45   46 1    
    89   45   49 1    
    90   45  107 1    
    91   46   47 1    
    92   46  108 1    
    93   46  109 1    
    94   47   48 1    
    95   48  110 1    
    96   48  111 1    
    97   49   50 am   BACKBONE|DICT|INTERRES
    98   49  112 1    
    99   50   51 2    
   100   50   52 1    
   101   52   53 1    
   102   52   54 1    
   103   52  113 1    
   104   53  114 1    
   105   53  115 1    
   106   53  116 1    
   107   54   55 am   BACKBONE|DICT|INTERRES
   108   54  117 1    
   109   55   56 2    
   110   55   57 1    
   111   57   58 1    
   112   57   59 1    
   113   57  118 1    
   114   58  119 1    
   115   58  120 1    
   116   58  121 1    
   117   59   60 am   BACKBONE|DICT|INTERRES
   118   59  122 1    
   119   60   61 2    
   120   60   62 1    
   121   62   63 1    
   122   62   64 1    
   123   62  123 1    
   124   63  124 1    
   125   63  125 1    
   126   63  126 1    
   127   64   65 am   BACKBONE|DICT|INTERRES
   128   64  127 1    
   129   65   66 2    
@<TRIPOS>SUBSTRUCTURE
     1 UNK         1 GROUP             0       ****    0 ROOT    
