@<TRIPOS>MOLECULE
3R134
127   129    1
SMALL
USER_CHARGES


@<TRIPOS>ATOM
      1 CA         39.2452  -45.8614  -52.7847 C.3       0 UNK        -0.1968 
      2 C          37.9047  -46.4286  -53.2273 C.2       0 UNK         0.4852 
      3 O          37.8664  -47.4723  -53.8815 O.2       0 UNK        -0.5359 
      4 N          36.8015  -45.7596  -52.8677 N.am      1 UNK        -0.4300 
      5 CA         35.4217  -46.1268  -53.2102 C.3       1 UNK         0.0863 
      6 C6         34.4725  -44.9008  -53.1518 C.3       11 UNK        -0.0953 
      7 S7         34.9409  -43.5452  -54.2832 S.3       11 UNK        -0.2369 
      8 C8         33.9522  -43.8998  -55.7827 C.3       11 UNK         0.0226 
      9 C9         32.4608  -43.5435  -55.7296 C.ar      11 UNK        -0.0699 
     10 C10        31.7689  -43.3256  -54.5322 C.ar      11 UNK        -0.0804 
     11 C11        30.3978  -43.0559  -54.5293 C.ar      11 UNK        -0.0871 
     12 C12        29.7189  -42.9332  -55.7433 C.ar      11 UNK        -0.1008 
     13 C13        30.3920  -43.1283  -56.9528 C.ar      11 UNK        -0.0735 
     14 C14        31.7547  -43.4493  -56.9345 C.ar      11 UNK        -0.0945 
     15 C15        29.6662  -42.9590  -58.2827 C.3       11 UNK         0.0169 
     16 S16        28.3016  -44.1477  -58.5035 S.3       11 UNK        -0.2669 
     17 C17        26.8262  -43.1744  -58.0296 C.3       11 UNK        -0.0850 
     18 CA         26.0278  -43.8000  -56.8491 C.3       10 UNK         0.0855 
     19 C          24.8746  -42.8806  -56.3439 C.2       10 UNK         0.5543 
     20 N          23.7691  -43.4221  -55.8470 N.am      10 UNK        -0.7343 
     21 O          24.9937  -41.6581  -56.3685 O.2       10 UNK        -0.5027 
     22 N          25.6387  -45.2001  -57.0870 N.am      10 UNK        -0.4495 
     23 C          24.8245  -45.6661  -58.0405 C.2       10 UNK         0.4903 
     24 O          24.2471  -44.9599  -58.8691 O.2       10 UNK        -0.4860 
     25 CA         24.6494  -47.1970  -58.0554 C.3       9 UNK         0.0227 
     26 CB         23.5650  -47.6759  -59.0441 C.3       9 UNK        -0.1964 
     27 N          25.9237  -47.8889  -58.2915 N.am      9 UNK        -0.4231 
     28 C          26.7233  -47.7869  -59.3670 C.2       9 UNK         0.5014 
     29 O          26.4500  -47.1210  -60.3667 O.2       9 UNK        -0.5270 
     30 CA         28.0533  -48.5645  -59.3476 C.3       8 UNK         0.0284 
     31 CB         29.2551  -47.6166  -59.5040 C.3       8 UNK        -0.1977 
     32 N          28.2326  -49.3674  -58.1339 N.am      8 UNK        -0.4342 
     33 C          27.8860  -50.6570  -58.0281 C.2       8 UNK         0.5039 
     34 O          27.3788  -51.3063  -58.9440 O.2       8 UNK        -0.5547 
     35 CA         28.1363  -51.3475  -56.6769 C.3       7 UNK         0.0281 
     36 CB         29.5920  -51.8292  -56.5757 C.3       7 UNK        -0.1963 
     37 N          27.8036  -50.5286  -55.5074 N.am      7 UNK        -0.4444 
     38 C          26.5679  -50.1050  -55.2024 C.2       7 UNK         0.5104 
     39 O          25.5883  -50.2540  -55.9324 O.2       7 UNK        -0.5100 
     40 CA         26.3964  -49.3898  -53.8547 C.3       6 UNK         0.0396 
     41 CB         26.4880  -50.3852  -52.6863 C.3       6 UNK        -0.1801 
     42 N          27.3916  -48.3353  -53.6838 N.am      6 UNK        -0.4747 
     43 C          27.3033  -47.1198  -54.2423 C.2       6 UNK         0.5012 
     44 O          26.3371  -46.7401  -54.9013 O.2       6 UNK        -0.5003 
     45 CA         28.5125  -46.1809  -54.0510 C.3       5 UNK         0.0782 
     46 C46        28.3347  -45.3747  -52.7364 C.3       11 UNK        -0.0868 
     47 S47        29.7862  -44.4101  -52.1975 S.3       11 UNK        -0.2515 
     48 C48        29.6669  -42.8944  -53.2046 C.3       11 UNK         0.0199 
     49 N          29.7844  -46.9091  -54.1299 N.am      5 UNK        -0.4607 
     50 C          30.1905  -47.6117  -55.1988 C.2       4 UNK         0.5031 
     51 O          29.5402  -47.7248  -56.2359 O.2       4 UNK        -0.5119 
     52 CA         31.5154  -48.3734  -55.0758 C.3       4 UNK         0.0263 
     53 CB         32.6857  -47.4952  -55.5326 C.3       4 UNK        -0.1967 
     54 N          31.7676  -48.8887  -53.7288 N.am      4 UNK        -0.4237 
     55 C          31.0265  -49.8224  -53.1134 C.2       3 UNK         0.4908 
     56 O          29.9757  -50.2663  -53.5823 O.2       3 UNK        -0.5102 
     57 CA         31.5163  -50.3276  -51.7395 C.3       3 UNK         0.0241 
     58 CB         31.3033  -51.8472  -51.5750 C.3       3 UNK        -0.1971 
     59 N          32.8997  -49.9453  -51.4098 N.am      3 UNK        -0.4139 
     60 C          34.0305  -50.3063  -52.0376 C.2       2 UNK         0.5016 
     61 O          34.0771  -51.0761  -52.9985 O.2       2 UNK        -0.5319 
     62 CA         35.3234  -49.6297  -51.5438 C.3       2 UNK         0.0286 
     63 CB         36.5308  -50.5812  -51.6182 C.3       2 UNK        -0.1963 
     64 N          35.6290  -48.4174  -52.3113 N.am      2 UNK        -0.4790 
     65 C          34.9023  -47.2921  -52.3318 C.2       1 UNK         0.5024 
     66 O          33.8626  -47.1584  -51.6842 O.2       1 UNK        -0.4888 
     67 H67        39.8674  -45.6497  -53.6539 H         1 UNK         0.0892 
     68 H68        39.1302  -44.9379  -52.2174 H         1 UNK         0.0892 
     69 H69        39.7687  -46.5823  -52.1576 H         1 UNK         0.0892 
     70 H70        36.8959  -44.9170  -52.3185 H         1 UNK         0.3107 
     71 H71        35.4153  -46.4934  -54.2389 H         1 UNK         0.0773 
     72 H72        33.4496  -45.2053  -53.3654 H         1 UNK         0.0680 
     73 H73        34.4498  -44.4907  -52.1404 H         1 UNK         0.0680 
     74 H74        34.4093  -43.3412  -56.6008 H         1 UNK         0.0650 
     75 H75        34.0636  -44.9525  -56.0413 H         1 UNK         0.0650 
     76 H76        32.2765  -43.3759  -53.5817 H         1 UNK         0.1397 
     77 H77        28.6680  -42.6852  -55.7496 H         1 UNK         0.1363 
     78 H78        32.2767  -43.6105  -57.8680 H         1 UNK         0.1355 
     79 H79        29.3072  -41.9336  -58.3759 H         1 UNK         0.0707 
     80 H80        30.3627  -43.1024  -59.1100 H         1 UNK         0.0707 
     81 H81        27.1335  -42.1585  -57.7780 H         1 UNK         0.1034 
     82 H82        26.1866  -43.0770  -58.9081 H         1 UNK         0.1034 
     83 H83        26.7077  -43.8536  -55.9995 H         1 UNK         0.0482 
     84 H84        23.6677  -44.4234  -55.8067 H         1 UNK         0.3460 
     85 H85        23.0312  -42.8232  -55.5115 H         1 UNK         0.3460 
     86 H86        25.9973  -45.8625  -56.4014 H         1 UNK         0.2989 
     87 H87        24.3272  -47.4856  -57.0535 H         1 UNK         0.0559 
     88 H88        22.5997  -47.2266  -58.8083 H         1 UNK         0.0848 
     89 H89        23.4389  -48.7576  -58.9997 H         1 UNK         0.0848 
     90 H90        23.8026  -47.4080  -60.0740 H         1 UNK         0.0848 
     91 H91        26.2394  -48.4837  -57.5372 H         1 UNK         0.3144 
     92 H92        28.0443  -49.2209  -60.2202 H         1 UNK         0.0727 
     93 H93        30.1947  -48.1681  -59.5367 H         1 UNK         0.0790 
     94 H94        29.1843  -47.0406  -60.4275 H         1 UNK         0.0790 
     95 H95        29.3156  -46.9029  -58.6832 H         1 UNK         0.0790 
     96 H96        28.6595  -48.8893  -57.3398 H         1 UNK         0.3215 
     97 H97        27.4921  -52.2288  -56.6418 H         1 UNK         0.0863 
     98 H98        29.7692  -52.3712  -55.6464 H         1 UNK         0.0808 
     99 H99        30.2948  -50.9984  -56.6182 H         1 UNK         0.0808 
    100 H100       29.8367  -52.5041  -57.3969 H         1 UNK         0.0808 
    101 H101       28.5533  -50.3646  -54.8387 H         1 UNK         0.3118 
    102 H102       25.3998  -48.9431  -53.8334 H         1 UNK         0.0546 
    103 H103       27.4668  -50.8628  -52.6289 H         1 UNK         0.0828 
    104 H104       25.7456  -51.1775  -52.7918 H         1 UNK         0.0828 
    105 H105       26.3006  -49.8927  -51.7322 H         1 UNK         0.0828 
    106 H106       28.2467  -48.5872  -53.2071 H         1 UNK         0.3005 
    107 H107       28.5059  -45.4775  -54.8866 H         1 UNK         0.1257 
    108 H108       27.4783  -44.7028  -52.8194 H         1 UNK         0.0775 
    109 H109       28.0994  -46.0489  -51.9100 H         1 UNK         0.0775 
    110 H110       28.6207  -42.6233  -53.3540 H         1 UNK         0.0840 
    111 H111       30.1211  -42.0702  -52.6529 H         1 UNK         0.0840 
    112 H112       30.3840  -46.8532  -53.3199 H         1 UNK         0.2987 
    113 H113       31.4651  -49.2317  -55.7467 H         1 UNK         0.0785 
    114 H114       32.5498  -47.1758  -56.5671 H         1 UNK         0.0798 
    115 H115       33.6351  -48.0281  -55.4783 H         1 UNK         0.0798 
    116 H116       32.7588  -46.5961  -54.9265 H         1 UNK         0.0798 
    117 H117       32.5924  -48.5540  -53.2519 H         1 UNK         0.3079 
    118 H118       30.8856  -49.8283  -51.0026 H         1 UNK         0.0794 
    119 H119       31.6319  -52.1906  -50.5942 H         1 UNK         0.0786 
    120 H120       31.8455  -52.4170  -52.3302 H         1 UNK         0.0786 
    121 H121       30.2484  -52.1078  -51.6707 H         1 UNK         0.0786 
    122 H122       32.9835  -49.2480  -50.6808 H         1 UNK         0.3032 
    123 H123       35.1869  -49.3477  -50.4972 H         1 UNK         0.1094 
    124 H124       36.7658  -50.8589  -52.6466 H         1 UNK         0.0794 
    125 H125       37.4213  -50.1263  -51.1836 H         1 UNK         0.0794 
    126 H126       36.3363  -51.5026  -51.0675 H         1 UNK         0.0794 
    127 H127       36.4688  -48.4327  -52.8841 H         1 UNK         0.3016 
@<TRIPOS>BOND
     1    1    2 1    
     2    1   67 1    
     3    1   68 1    
     4    1   69 1    
     5    2    3 2    
     6    2    4 am   BACKBONE|DICT|INTERRES
     7    4    5 1    
     8    4   70 1    
     9    5    6 1    
    10    5   65 1    
    11    5   71 1    
    12    6    7 1    
    13    6   72 1    
    14    6   73 1    
    15    7    8 1    
    16    8    9 1    
    17    8   74 1    
    18    8   75 1    
    19    9   10 ar   
    20    9   14 ar   
    21   10   11 ar   
    22   10   76 1    
    23   11   12 ar   
    24   11   48 1    
    25   12   13 ar   
    26   12   77 1    
    27   13   14 ar   
    28   13   15 1    
    29   14   78 1    
    30   15   16 1    
    31   15   79 1    
    32   15   80 1    
    33   16   17 1    
    34   17   18 1    
    35   17   81 1    
    36   17   82 1    
    37   18   19 1    
    38   18   22 1    
    39   18   83 1    
    40   19   20 am   BACKBONE|DICT|INTERRES
    41   19   21 2    
    42   20   84 1    
    43   20   85 1    
    44   22   23 am   BACKBONE|DICT|INTERRES
    45   22   86 1    
    46   23   24 2    
    47   23   25 1    
    48   25   26 1    
    49   25   27 1    
    50   25   87 1    
    51   26   88 1    
    52   26   89 1    
    53   26   90 1    
    54   27   28 am   BACKBONE|DICT|INTERRES
    55   27   91 1    
    56   28   29 2    
    57   28   30 1    
    58   30   31 1    
    59   30   32 1    
    60   30   92 1    
    61   31   93 1    
    62   31   94 1    
    63   31   95 1    
    64   32   33 am   BACKBONE|DICT|INTERRES
    65   32   96 1    
    66   33   34 2    
    67   33   35 1    
    68   35   36 1    
    69   35   37 1    
    70   35   97 1    
    71   36   98 1    
    72   36   99 1    
    73   36  100 1    
    74   37   38 am   BACKBONE|DICT|INTERRES
    75   37  101 1    
    76   38   39 2    
    77   38   40 1    
    78   40   41 1    
    79   40   42 1    
    80   40  102 1    
    81   41  103 1    
    82   41  104 1    
    83   41  105 1    
    84   42   43 am   BACKBONE|DICT|INTERRES
    85   42  106 1    
    86   43   44 2    
    87   43   45 1    
    88   45   46 1    
    89   45   49 1    
    90   45  107 1    
    91   46   47 1    
    92   46  108 1    
    93   46  109 1    
    94   47   48 1    
    95   48  110 1    
    96   48  111 1    
    97   49   50 am   BACKBONE|DICT|INTERRES
    98   49  112 1    
    99   50   51 2    
   100   50   52 1    
   101   52   53 1    
   102   52   54 1    
   103   52  113 1    
   104   53  114 1    
   105   53  115 1    
   106   53  116 1    
   107   54   55 am   BACKBONE|DICT|INTERRES
   108   54  117 1    
   109   55   56 2    
   110   55   57 1    
   111   57   58 1    
   112   57   59 1    
   113   57  118 1    
   114   58  119 1    
   115   58  120 1    
   116   58  121 1    
   117   59   60 am   BACKBONE|DICT|INTERRES
   118   59  122 1    
   119   60   61 2    
   120   60   62 1    
   121   62   63 1    
   122   62   64 1    
   123   62  123 1    
   124   63  124 1    
   125   63  125 1    
   126   63  126 1    
   127   64   65 am   BACKBONE|DICT|INTERRES
   128   64  127 1    
   129   65   66 2    
@<TRIPOS>SUBSTRUCTURE
     1 UNK         1 GROUP             0       ****    0 ROOT    
