@<TRIPOS>MOLECULE
3R134
127   129    1
SMALL
USER_CHARGES


@<TRIPOS>ATOM
      1 CA         33.8195  -44.3499  -50.0441 C.3       0 UNK        -0.1968 
      2 C          34.6977  -44.5827  -51.2640 C.2       0 UNK         0.4852 
      3 O          35.4516  -43.6892  -51.6524 O.2       0 UNK        -0.5359 
      4 N          34.6194  -45.7772  -51.8588 N.am      1 UNK        -0.4300 
      5 CA         35.4662  -46.2294  -52.9594 C.3       1 UNK         0.0863 
      6 C6         35.0038  -45.7004  -54.3461 C.3       11 UNK        -0.0953 
      7 S7         33.4827  -46.4657  -55.0142 S.3       11 UNK        -0.2369 
      8 C8         32.8309  -45.1155  -56.0536 C.3       11 UNK         0.0226 
      9 C9         31.6932  -44.3264  -55.4099 C.ar      11 UNK        -0.0699 
     10 C10        31.6325  -44.1038  -54.0292 C.ar      11 UNK        -0.0804 
     11 C11        30.5529  -43.4200  -53.4625 C.ar      11 UNK        -0.0871 
     12 C12        29.5445  -42.9189  -54.2897 C.ar      11 UNK        -0.1008 
     13 C13        29.6082  -43.1054  -55.6727 C.ar      11 UNK        -0.0735 
     14 C14        30.6821  -43.8083  -56.2248 C.ar      11 UNK        -0.0945 
     15 C15        28.5144  -42.5531  -56.5706 C.3       11 UNK         0.0169 
     16 S16        27.1088  -43.6984  -56.6567 S.3       11 UNK        -0.2669 
     17 C17        26.0359  -42.8112  -57.8357 C.3       11 UNK        -0.0850 
     18 CA         24.9693  -43.7389  -58.4853 C.3       10 UNK         0.0855 
     19 C          23.9332  -42.9531  -59.3467 C.2       10 UNK         0.5543 
     20 N          23.3806  -43.5338  -60.4049 N.am      10 UNK        -0.7343 
     21 O          23.5980  -41.8121  -59.0371 O.2       10 UNK        -0.5027 
     22 N          25.5575  -44.9192  -59.1456 N.am      10 UNK        -0.4495 
     23 C          26.3651  -44.9264  -60.2119 C.2       10 UNK         0.4903 
     24 O          26.7372  -43.9119  -60.8039 O.2       10 UNK        -0.4860 
     25 CA         26.8366  -46.3156  -60.6864 C.3       9 UNK         0.0227 
     26 CB         27.4821  -46.2710  -62.0844 C.3       9 UNK        -0.1964 
     27 N          27.7780  -46.9356  -59.7493 N.am      9 UNK        -0.4231 
     28 C          27.4652  -47.4625  -58.5578 C.2       9 UNK         0.5014 
     29 O          26.3224  -47.4641  -58.0893 O.2       9 UNK        -0.5270 
     30 CA         28.6397  -48.0707  -57.7653 C.3       8 UNK         0.0284 
     31 CB         29.4611  -46.9639  -57.0829 C.3       8 UNK        -0.1977 
     32 N          28.2085  -49.0283  -56.7452 N.am      8 UNK        -0.4342 
     33 C          27.5557  -50.1766  -56.9714 C.2       8 UNK         0.5039 
     34 O          27.3260  -50.6216  -58.0979 O.2       8 UNK        -0.5547 
     35 CA         27.0644  -50.9690  -55.7481 C.3       7 UNK         0.0281 
     36 CB         27.9959  -52.1524  -55.4471 C.3       7 UNK        -0.1963 
     37 N          26.9476  -50.1369  -54.5462 N.am      7 UNK        -0.4444 
     38 C          25.7879  -49.6901  -54.0447 C.2       7 UNK         0.5104 
     39 O          24.6887  -49.9178  -54.5516 O.2       7 UNK        -0.5100 
     40 CA         25.8434  -48.8766  -52.7381 C.3       6 UNK         0.0396 
     41 CB         25.5411  -49.7840  -51.5346 C.3       6 UNK        -0.1801 
     42 N          27.1238  -48.2024  -52.5157 N.am      6 UNK        -0.4747 
     43 C          27.5240  -47.0950  -53.1574 C.2       6 UNK         0.5012 
     44 O          26.8444  -46.5122  -54.0007 O.2       6 UNK        -0.5003 
     45 CA         28.9215  -46.5502  -52.7923 C.3       5 UNK         0.0782 
     46 C46        28.7847  -45.4963  -51.6613 C.3       11 UNK        -0.0868 
     47 S47        30.3828  -44.8320  -51.0808 S.3       11 UNK        -0.2515 
     48 C48        30.4728  -43.2359  -51.9548 C.3       11 UNK         0.0199 
     49 N          29.9002  -47.5977  -52.4570 N.am      5 UNK        -0.4607 
     50 C          30.2552  -48.6246  -53.2402 C.2       4 UNK         0.5031 
     51 O          29.6881  -48.8963  -54.2985 O.2       4 UNK        -0.5119 
     52 CA         31.3950  -49.5132  -52.7149 C.3       4 UNK         0.0263 
     53 CB         30.8486  -50.8143  -52.0945 C.3       4 UNK        -0.1967 
     54 N          32.4262  -49.7655  -53.7304 N.am      4 UNK        -0.4237 
     55 C          32.3727  -50.5400  -54.8279 C.2       3 UNK         0.4908 
     56 O          31.4390  -51.2876  -55.1121 O.2       3 UNK        -0.5102 
     57 CA         33.5764  -50.4946  -55.7892 C.3       3 UNK         0.0241 
     58 CB         33.2182  -49.7092  -57.0629 C.3       3 UNK        -0.1971 
     59 N          34.7847  -49.9242  -55.1872 N.am      3 UNK        -0.4139 
     60 C          35.5899  -50.5806  -54.3390 C.2       2 UNK         0.5016 
     61 O          35.4381  -51.7624  -54.0277 O.2       2 UNK        -0.5319 
     62 CA         36.7541  -49.7856  -53.7166 C.3       2 UNK         0.0286 
     63 CB         38.0548  -50.0410  -54.4953 C.3       2 UNK        -0.1963 
     64 N          36.5197  -48.3382  -53.6305 N.am      2 UNK        -0.4790 
     65 C          35.5604  -47.7631  -52.8922 C.2       1 UNK         0.5024 
     66 O          34.7465  -48.3977  -52.2141 O.2       1 UNK        -0.4888 
     67 H67        34.4389  -44.1701  -49.1660 H         1 UNK         0.0892 
     68 H68        33.1859  -43.4773  -50.1963 H         1 UNK         0.0892 
     69 H69        33.1771  -45.2051  -49.8352 H         1 UNK         0.0892 
     70 H70        34.0269  -46.5083  -51.4842 H         1 UNK         0.3107 
     71 H71        36.4750  -45.8541  -52.7725 H         1 UNK         0.0773 
     72 H72        35.7955  -45.8544  -55.0808 H         1 UNK         0.0680 
     73 H73        34.8667  -44.6193  -54.2931 H         1 UNK         0.0680 
     74 H74        32.4794  -45.5682  -56.9820 H         1 UNK         0.0650 
     75 H75        33.6324  -44.4311  -56.3335 H         1 UNK         0.0650 
     76 H76        32.4092  -44.4864  -53.3829 H         1 UNK         0.1397 
     77 H77        28.7047  -42.3889  -53.8612 H         1 UNK         0.1363 
     78 H78        30.7237  -43.9607  -57.2946 H         1 UNK         0.1355 
     79 H79        28.1743  -41.5868  -56.1947 H         1 UNK         0.0707 
     80 H80        28.9034  -42.3774  -57.5749 H         1 UNK         0.0707 
     81 H81        25.5564  -41.9952  -57.2920 H         1 UNK         0.1034 
     82 H82        26.6487  -42.3427  -58.6074 H         1 UNK         0.1034 
     83 H83        24.3740  -44.1488  -57.6687 H         1 UNK         0.0482 
     84 H84        23.6368  -44.4738  -60.6607 H         1 UNK         0.3460 
     85 H85        22.7035  -43.0258  -60.9521 H         1 UNK         0.3460 
     86 H86        25.3942  -45.8106  -58.6872 H         1 UNK         0.2989 
     87 H87        25.9522  -46.9528  -60.7550 H         1 UNK         0.0559 
     88 H88        28.3949  -45.6738  -62.0919 H         1 UNK         0.0848 
     89 H89        26.8007  -45.8321  -62.8146 H         1 UNK         0.0848 
     90 H90        27.7318  -47.2710  -62.4395 H         1 UNK         0.0848 
     91 H91        28.7463  -46.9448  -60.0361 H         1 UNK         0.3144 
     92 H92        29.2842  -48.6066  -58.4649 H         1 UNK         0.0727 
     93 H93        30.3268  -47.3721  -56.5600 H         1 UNK         0.0790 
     94 H94        28.8631  -46.4106  -56.3568 H         1 UNK         0.0790 
     95 H95        29.8353  -46.2445  -57.8113 H         1 UNK         0.0790 
     96 H96        28.4499  -48.7968  -55.7872 H         1 UNK         0.3215 
     97 H97        26.0893  -51.3816  -56.0158 H         1 UNK         0.0863 
     98 H98        28.9734  -51.8128  -55.1101 H         1 UNK         0.0808 
     99 H99        28.1494  -52.7699  -56.3332 H         1 UNK         0.0808 
    100 H100       27.5805  -52.7948  -54.6708 H         1 UNK         0.0808 
    101 H101       27.8146  -49.8554  -54.1033 H         1 UNK         0.3118 
    102 H102       25.0606  -48.1167  -52.7919 H         1 UNK         0.0546 
    103 H103       26.2942  -50.5641  -51.4161 H         1 UNK         0.0828 
    104 H104       24.5762  -50.2794  -51.6523 H         1 UNK         0.0828 
    105 H105       25.4977  -49.2133  -50.6068 H         1 UNK         0.0828 
    106 H106       27.7477  -48.6124  -51.8354 H         1 UNK         0.3005 
    107 H107       29.2994  -46.0462  -53.6851 H         1 UNK         0.1257 
    108 H108       28.2853  -45.9325  -50.7938 H         1 UNK         0.0775 
    109 H109       28.1512  -44.6684  -51.9863 H         1 UNK         0.0775 
    110 H110       29.6127  -42.6249  -51.6763 H         1 UNK         0.0840 
    111 H111       31.3555  -42.6920  -51.6172 H         1 UNK         0.0840 
    112 H112       30.4019  -47.4465  -51.5937 H         1 UNK         0.2987 
    113 H113       31.9097  -48.9662  -51.9233 H         1 UNK         0.0785 
    114 H114       30.2126  -50.5969  -51.2357 H         1 UNK         0.0798 
    115 H115       30.2464  -51.3850  -52.8020 H         1 UNK         0.0798 
    116 H116       31.6567  -51.4573  -51.7458 H         1 UNK         0.0798 
    117 H117       33.2696  -49.2212  -53.5982 H         1 UNK         0.3079 
    118 H118       33.7933  -51.5242  -56.0826 H         1 UNK         0.0794 
    119 H119       32.3645  -50.1618  -57.5695 H         1 UNK         0.0786 
    120 H120       34.0461  -49.6994  -57.7719 H         1 UNK         0.0786 
    121 H121       32.9484  -48.6766  -56.8437 H         1 UNK         0.0786 
    122 H122       34.9859  -48.9554  -55.3906 H         1 UNK         0.3032 
    123 H123       36.8854  -50.1607  -52.6988 H         1 UNK         0.1094 
    124 H124       38.2716  -51.1087  -54.5538 H         1 UNK         0.0794 
    125 H125       37.9951  -49.6646  -55.5173 H         1 UNK         0.0794 
    126 H126       38.9084  -49.5667  -54.0105 H         1 UNK         0.0794 
    127 H127       37.1419  -47.7487  -54.1659 H         1 UNK         0.3016 
@<TRIPOS>BOND
     1    1    2 1    
     2    1   67 1    
     3    1   68 1    
     4    1   69 1    
     5    2    3 2    
     6    2    4 am   BACKBONE|DICT|INTERRES
     7    4    5 1    
     8    4   70 1    
     9    5    6 1    
    10    5   65 1    
    11    5   71 1    
    12    6    7 1    
    13    6   72 1    
    14    6   73 1    
    15    7    8 1    
    16    8    9 1    
    17    8   74 1    
    18    8   75 1    
    19    9   10 ar   
    20    9   14 ar   
    21   10   11 ar   
    22   10   76 1    
    23   11   12 ar   
    24   11   48 1    
    25   12   13 ar   
    26   12   77 1    
    27   13   14 ar   
    28   13   15 1    
    29   14   78 1    
    30   15   16 1    
    31   15   79 1    
    32   15   80 1    
    33   16   17 1    
    34   17   18 1    
    35   17   81 1    
    36   17   82 1    
    37   18   19 1    
    38   18   22 1    
    39   18   83 1    
    40   19   20 am   BACKBONE|DICT|INTERRES
    41   19   21 2    
    42   20   84 1    
    43   20   85 1    
    44   22   23 am   BACKBONE|DICT|INTERRES
    45   22   86 1    
    46   23   24 2    
    47   23   25 1    
    48   25   26 1    
    49   25   27 1    
    50   25   87 1    
    51   26   88 1    
    52   26   89 1    
    53   26   90 1    
    54   27   28 am   BACKBONE|DICT|INTERRES
    55   27   91 1    
    56   28   29 2    
    57   28   30 1    
    58   30   31 1    
    59   30   32 1    
    60   30   92 1    
    61   31   93 1    
    62   31   94 1    
    63   31   95 1    
    64   32   33 am   BACKBONE|DICT|INTERRES
    65   32   96 1    
    66   33   34 2    
    67   33   35 1    
    68   35   36 1    
    69   35   37 1    
    70   35   97 1    
    71   36   98 1    
    72   36   99 1    
    73   36  100 1    
    74   37   38 am   BACKBONE|DICT|INTERRES
    75   37  101 1    
    76   38   39 2    
    77   38   40 1    
    78   40   41 1    
    79   40   42 1    
    80   40  102 1    
    81   41  103 1    
    82   41  104 1    
    83   41  105 1    
    84   42   43 am   BACKBONE|DICT|INTERRES
    85   42  106 1    
    86   43   44 2    
    87   43   45 1    
    88   45   46 1    
    89   45   49 1    
    90   45  107 1    
    91   46   47 1    
    92   46  108 1    
    93   46  109 1    
    94   47   48 1    
    95   48  110 1    
    96   48  111 1    
    97   49   50 am   BACKBONE|DICT|INTERRES
    98   49  112 1    
    99   50   51 2    
   100   50   52 1    
   101   52   53 1    
   102   52   54 1    
   103   52  113 1    
   104   53  114 1    
   105   53  115 1    
   106   53  116 1    
   107   54   55 am   BACKBONE|DICT|INTERRES
   108   54  117 1    
   109   55   56 2    
   110   55   57 1    
   111   57   58 1    
   112   57   59 1    
   113   57  118 1    
   114   58  119 1    
   115   58  120 1    
   116   58  121 1    
   117   59   60 am   BACKBONE|DICT|INTERRES
   118   59  122 1    
   119   60   61 2    
   120   60   62 1    
   121   62   63 1    
   122   62   64 1    
   123   62  123 1    
   124   63  124 1    
   125   63  125 1    
   126   63  126 1    
   127   64   65 am   BACKBONE|DICT|INTERRES
   128   64  127 1    
   129   65   66 2    
@<TRIPOS>SUBSTRUCTURE
     1 UNK         1 GROUP             0       ****    0 ROOT    
