@<TRIPOS>MOLECULE
3R134
127   129    1
SMALL
USER_CHARGES


@<TRIPOS>ATOM
      1 CA         29.7525  -45.3241  -52.9935 C.3       0 UNK        -0.1968 
      2 C          30.9050  -45.3426  -51.9998 C.2       0 UNK         0.4852 
      3 O          30.7346  -45.8198  -50.8779 O.2       0 UNK        -0.5359 
      4 N          32.0769  -44.8311  -52.4012 N.am      1 UNK        -0.4300 
      5 CA         33.2807  -44.7266  -51.5616 C.3       1 UNK         0.0863 
      6 C6         34.2307  -43.6043  -52.0544 C.3       11 UNK        -0.0953 
      7 S7         33.4373  -41.9593  -52.0351 S.3       11 UNK        -0.2369 
      8 C8         33.6470  -41.3991  -53.7554 C.3       11 UNK         0.0226 
      9 C9         32.7704  -42.1798  -54.7229 C.ar      11 UNK        -0.0699 
     10 C10        33.3265  -43.1761  -55.5303 C.ar      11 UNK        -0.0804 
     11 C11        32.5220  -43.9068  -56.4078 C.ar      11 UNK        -0.0871 
     12 C12        31.1559  -43.6198  -56.4906 C.ar      11 UNK        -0.1008 
     13 C13        30.5876  -42.6236  -55.6918 C.ar      11 UNK        -0.0735 
     14 C14        31.4019  -41.9043  -54.8112 C.ar      11 UNK        -0.0945 
     15 C15        29.0890  -42.3602  -55.7470 C.3       11 UNK         0.0169 
     16 S16        28.5434  -41.8413  -57.4047 S.3       11 UNK        -0.2669 
     17 C17        26.7639  -41.5534  -57.1027 C.3       11 UNK        -0.0850 
     18 CA         25.8299  -42.6941  -57.5946 C.3       10 UNK         0.0855 
     19 C          25.6893  -42.8095  -59.1398 C.2       10 UNK         0.5543 
     20 N          25.3859  -43.9859  -59.6787 N.am      10 UNK        -0.7343 
     21 O          25.8294  -41.8247  -59.8609 O.2       10 UNK        -0.5027 
     22 N          26.1361  -43.9845  -56.9615 N.am      10 UNK        -0.4495 
     23 C          25.5457  -44.4742  -55.8677 C.2       10 UNK         0.4903 
     24 O          24.7437  -43.8347  -55.1851 O.2       10 UNK        -0.4860 
     25 CA         25.9080  -45.9215  -55.4668 C.3       9 UNK         0.0227 
     26 CB         24.7636  -46.6122  -54.6969 C.3       9 UNK        -0.1964 
     27 N          26.3605  -46.7808  -56.5730 N.am      9 UNK        -0.4231 
     28 C          25.7153  -47.0712  -57.7157 C.2       9 UNK         0.5014 
     29 O          24.6485  -46.5597  -58.0576 O.2       9 UNK        -0.5270 
     30 CA         26.3871  -48.0881  -58.6506 C.3       8 UNK         0.0284 
     31 CB         27.4968  -47.4115  -59.4736 C.3       8 UNK        -0.1977 
     32 N          26.9498  -49.2104  -57.8970 N.am      8 UNK        -0.4342 
     33 C          26.3347  -50.3837  -57.6895 C.2       8 UNK         0.5039 
     34 O          25.2443  -50.6817  -58.1787 O.2       8 UNK        -0.5547 
     35 CA         27.0491  -51.4045  -56.7805 C.3       7 UNK         0.0281 
     36 CB         27.9181  -52.3568  -57.6172 C.3       7 UNK        -0.1963 
     37 N          27.8775  -50.7700  -55.7528 N.am      7 UNK        -0.4444 
     38 C          27.3932  -50.0804  -54.7102 C.2       7 UNK         0.5104 
     39 O          26.1976  -50.0350  -54.4227 O.2       7 UNK        -0.5100 
     40 CA         28.3957  -49.2727  -53.8627 C.3       6 UNK         0.0396 
     41 CB         28.6518  -49.9665  -52.5164 C.3       6 UNK        -0.1801 
     42 N          29.6817  -49.0066  -54.5179 N.am      6 UNK        -0.4747 
     43 C          29.8558  -48.3190  -55.6556 C.2       6 UNK         0.5012 
     44 O          28.9297  -47.8356  -56.3054 O.2       6 UNK        -0.5003 
     45 CA         31.2975  -48.1593  -56.1654 C.3       5 UNK         0.0782 
     46 C46        31.9420  -46.9236  -55.5062 C.3       11 UNK        -0.0868 
     47 S47        33.5549  -46.4802  -56.2280 S.3       11 UNK        -0.2515 
     48 C48        33.1224  -45.0286  -57.2444 C.3       11 UNK         0.0199 
     49 N          32.0796  -49.3778  -55.9489 N.am      5 UNK        -0.4607 
     50 C          31.9132  -50.5205  -56.6270 C.2       4 UNK         0.5031 
     51 O          31.1050  -50.6585  -57.5444 O.2       4 UNK        -0.5119 
     52 CA         32.7781  -51.7153  -56.1903 C.3       4 UNK         0.0263 
     53 CB         34.1403  -51.6819  -56.9014 C.3       4 UNK        -0.1967 
     54 N          32.9836  -51.7560  -54.7398 N.am      4 UNK        -0.4237 
     55 C          32.0228  -52.0409  -53.8483 C.2       3 UNK         0.4908 
     56 O          30.8822  -52.3857  -54.1577 O.2       3 UNK        -0.5102 
     57 CA         32.3848  -51.8793  -52.3596 C.3       3 UNK         0.0241 
     58 CB         32.9626  -53.1892  -51.8000 C.3       3 UNK        -0.1971 
     59 N          33.3163  -50.7751  -52.0897 N.am      3 UNK        -0.4139 
     60 C          33.0576  -49.4862  -52.3484 C.2       2 UNK         0.5016 
     61 O          32.0082  -49.0916  -52.8629 O.2       2 UNK        -0.5319 
     62 CA         34.1673  -48.4765  -52.0331 C.3       2 UNK         0.0286 
     63 CB         35.3099  -48.5745  -53.0612 C.3       2 UNK        -0.1963 
     64 N          33.5956  -47.1329  -52.0679 N.am      2 UNK        -0.4790 
     65 C          34.0450  -46.0641  -51.4006 C.2       1 UNK         0.5024 
     66 O          35.0376  -46.1020  -50.6715 O.2       1 UNK        -0.4888 
     67 H67        30.0258  -44.8347  -53.9264 H         1 UNK         0.0892 
     68 H68        29.4374  -46.3417  -53.2195 H         1 UNK         0.0892 
     69 H69        28.9018  -44.7904  -52.5708 H         1 UNK         0.0892 
     70 H70        32.1597  -44.4253  -53.3234 H         1 UNK         0.3107 
     71 H71        32.9567  -44.4531  -50.5549 H         1 UNK         0.0773 
     72 H72        34.6074  -43.8319  -53.0522 H         1 UNK         0.0680 
     73 H73        35.1104  -43.5356  -51.4116 H         1 UNK         0.0680 
     74 H74        34.6992  -41.4720  -54.0351 H         1 UNK         0.0650 
     75 H75        33.3904  -40.3403  -53.8121 H         1 UNK         0.0650 
     76 H76        34.3831  -43.3985  -55.4659 H         1 UNK         0.1397 
     77 H77        30.5250  -44.1848  -57.1636 H         1 UNK         0.1363 
     78 H78        30.9719  -41.1373  -54.1812 H         1 UNK         0.1355 
     79 H79        28.5572  -43.2680  -55.4595 H         1 UNK         0.0707 
     80 H80        28.8091  -41.5927  -55.0237 H         1 UNK         0.0707 
     81 H81        26.6002  -41.3920  -56.0363 H         1 UNK         0.1034 
     82 H82        26.4870  -40.6092  -57.5751 H         1 UNK         0.1034 
     83 H83        24.8220  -42.4067  -57.2896 H         1 UNK         0.0482 
     84 H84        25.1617  -44.7815  -59.0938 H         1 UNK         0.3460 
     85 H85        25.2848  -44.0534  -60.6790 H         1 UNK         0.3460 
     86 H86        26.7856  -44.5686  -57.4673 H         1 UNK         0.2989 
     87 H87        26.7582  -45.8383  -54.7881 H         1 UNK         0.0559 
     88 H88        23.8623  -46.6934  -55.3054 H         1 UNK         0.0848 
     89 H89        24.5005  -46.0576  -53.7954 H         1 UNK         0.0848 
     90 H90        25.0456  -47.6162  -54.3821 H         1 UNK         0.0848 
     91 H91        27.2793  -47.2014  -56.4386 H         1 UNK         0.3144 
     92 H92        25.6295  -48.4532  -59.3475 H         1 UNK         0.0727 
     93 H93        28.2926  -47.0138  -58.8428 H         1 UNK         0.0790 
     94 H94        27.9482  -48.1122  -60.1762 H         1 UNK         0.0790 
     95 H95        27.0980  -46.5810  -60.0579 H         1 UNK         0.0790 
     96 H96        27.8249  -49.0313  -57.4166 H         1 UNK         0.3215 
     97 H97        26.2799  -51.9958  -56.2787 H         1 UNK         0.0863 
     98 H98        28.3981  -53.1103  -56.9923 H         1 UNK         0.0808 
     99 H99        28.6995  -51.8214  -58.1578 H         1 UNK         0.0808 
    100 H100       27.3147  -52.8851  -58.3567 H         1 UNK         0.0808 
    101 H101       28.8786  -50.7831  -55.8921 H         1 UNK         0.3118 
    102 H102       27.9304  -48.3059  -53.6610 H         1 UNK         0.0546 
    103 H103       29.1134  -50.9448  -52.6505 H         1 UNK         0.0828 
    104 H104       27.7195  -50.1181  -51.9708 H         1 UNK         0.0828 
    105 H105       29.3063  -49.3704  -51.8799 H         1 UNK         0.0828 
    106 H106       30.5139  -49.3003  -54.0104 H         1 UNK         0.3005 
    107 H107       31.2358  -47.9821  -57.2419 H         1 UNK         0.1257 
    108 H108       31.2646  -46.0760  -55.5732 H         1 UNK         0.0775 
    109 H109       32.0908  -47.0877  -54.4412 H         1 UNK         0.0775 
    110 H110       34.0205  -44.6659  -57.7464 H         1 UNK         0.0840 
    111 H111       32.4346  -45.3364  -58.0337 H         1 UNK         0.0840 
    112 H112       32.7395  -49.3523  -55.1866 H         1 UNK         0.2987 
    113 H113       32.2578  -52.6284  -56.4883 H         1 UNK         0.0785 
    114 H114       34.0132  -51.6728  -57.9849 H         1 UNK         0.0798 
    115 H115       34.7384  -52.5594  -56.6549 H         1 UNK         0.0798 
    116 H116       34.7170  -50.7952  -56.6341 H         1 UNK         0.0798 
    117 H117       33.8990  -51.5045  -54.3970 H         1 UNK         0.3079 
    118 H118       31.4580  -51.6615  -51.8246 H         1 UNK         0.0794 
    119 H119       33.1277  -53.1229  -50.7244 H         1 UNK         0.0786 
    120 H120       33.9117  -53.4480  -52.2711 H         1 UNK         0.0786 
    121 H121       32.2773  -54.0213  -51.9690 H         1 UNK         0.0786 
    122 H122       34.2022  -51.0220  -51.6716 H         1 UNK         0.3032 
    123 H123       34.5464  -48.6863  -51.0302 H         1 UNK         0.1094 
    124 H124       34.9582  -48.3771  -54.0747 H         1 UNK         0.0794 
    125 H125       36.1021  -47.8587  -52.8411 H         1 UNK         0.0794 
    126 H126       35.7654  -49.5653  -53.0579 H         1 UNK         0.0794 
    127 H127       32.7196  -47.0696  -52.5696 H         1 UNK         0.3016 
@<TRIPOS>BOND
     1    1    2 1    
     2    1   67 1    
     3    1   68 1    
     4    1   69 1    
     5    2    3 2    
     6    2    4 am   BACKBONE|DICT|INTERRES
     7    4    5 1    
     8    4   70 1    
     9    5    6 1    
    10    5   65 1    
    11    5   71 1    
    12    6    7 1    
    13    6   72 1    
    14    6   73 1    
    15    7    8 1    
    16    8    9 1    
    17    8   74 1    
    18    8   75 1    
    19    9   10 ar   
    20    9   14 ar   
    21   10   11 ar   
    22   10   76 1    
    23   11   12 ar   
    24   11   48 1    
    25   12   13 ar   
    26   12   77 1    
    27   13   14 ar   
    28   13   15 1    
    29   14   78 1    
    30   15   16 1    
    31   15   79 1    
    32   15   80 1    
    33   16   17 1    
    34   17   18 1    
    35   17   81 1    
    36   17   82 1    
    37   18   19 1    
    38   18   22 1    
    39   18   83 1    
    40   19   20 am   BACKBONE|DICT|INTERRES
    41   19   21 2    
    42   20   84 1    
    43   20   85 1    
    44   22   23 am   BACKBONE|DICT|INTERRES
    45   22   86 1    
    46   23   24 2    
    47   23   25 1    
    48   25   26 1    
    49   25   27 1    
    50   25   87 1    
    51   26   88 1    
    52   26   89 1    
    53   26   90 1    
    54   27   28 am   BACKBONE|DICT|INTERRES
    55   27   91 1    
    56   28   29 2    
    57   28   30 1    
    58   30   31 1    
    59   30   32 1    
    60   30   92 1    
    61   31   93 1    
    62   31   94 1    
    63   31   95 1    
    64   32   33 am   BACKBONE|DICT|INTERRES
    65   32   96 1    
    66   33   34 2    
    67   33   35 1    
    68   35   36 1    
    69   35   37 1    
    70   35   97 1    
    71   36   98 1    
    72   36   99 1    
    73   36  100 1    
    74   37   38 am   BACKBONE|DICT|INTERRES
    75   37  101 1    
    76   38   39 2    
    77   38   40 1    
    78   40   41 1    
    79   40   42 1    
    80   40  102 1    
    81   41  103 1    
    82   41  104 1    
    83   41  105 1    
    84   42   43 am   BACKBONE|DICT|INTERRES
    85   42  106 1    
    86   43   44 2    
    87   43   45 1    
    88   45   46 1    
    89   45   49 1    
    90   45  107 1    
    91   46   47 1    
    92   46  108 1    
    93   46  109 1    
    94   47   48 1    
    95   48  110 1    
    96   48  111 1    
    97   49   50 am   BACKBONE|DICT|INTERRES
    98   49  112 1    
    99   50   51 2    
   100   50   52 1    
   101   52   53 1    
   102   52   54 1    
   103   52  113 1    
   104   53  114 1    
   105   53  115 1    
   106   53  116 1    
   107   54   55 am   BACKBONE|DICT|INTERRES
   108   54  117 1    
   109   55   56 2    
   110   55   57 1    
   111   57   58 1    
   112   57   59 1    
   113   57  118 1    
   114   58  119 1    
   115   58  120 1    
   116   58  121 1    
   117   59   60 am   BACKBONE|DICT|INTERRES
   118   59  122 1    
   119   60   61 2    
   120   60   62 1    
   121   62   63 1    
   122   62   64 1    
   123   62  123 1    
   124   63  124 1    
   125   63  125 1    
   126   63  126 1    
   127   64   65 am   BACKBONE|DICT|INTERRES
   128   64  127 1    
   129   65   66 2    
@<TRIPOS>SUBSTRUCTURE
     1 UNK         1 GROUP             0       ****    0 ROOT    
