@<TRIPOS>MOLECULE
3R134
127   129    1
SMALL
USER_CHARGES


@<TRIPOS>ATOM
      1 CA         32.4356  -42.2773  -52.3623 C.3       0 UNK        -0.1968 
      2 C          33.8352  -42.8506  -52.5252 C.2       0 UNK         0.4852 
      3 O          34.7334  -42.5040  -51.7575 O.2       0 UNK        -0.5359 
      4 N          34.0251  -43.7269  -53.5205 N.am      1 UNK        -0.4300 
      5 CA         35.3023  -44.3729  -53.8485 C.3       1 UNK         0.0863 
      6 C6         35.3549  -44.7710  -55.3489 C.3       11 UNK        -0.0953 
      7 S7         34.5298  -46.3386  -55.7912 S.3       11 UNK        -0.2369 
      8 C8         32.8985  -45.8152  -56.4229 C.3       11 UNK         0.0226 
      9 C9         31.8835  -45.4055  -55.3542 C.ar      11 UNK        -0.0699 
     10 C10        31.8678  -45.9864  -54.0803 C.ar      11 UNK        -0.0804 
     11 C11        30.9232  -45.5963  -53.1262 C.ar      11 UNK        -0.0871 
     12 C12        29.9504  -44.6580  -53.4746 C.ar      11 UNK        -0.1008 
     13 C13        29.9244  -44.0883  -54.7499 C.ar      11 UNK        -0.0735 
     14 C14        30.9098  -44.4553  -55.6766 C.ar      11 UNK        -0.0945 
     15 C15        28.8154  -43.0816  -55.0551 C.3       11 UNK         0.0169 
     16 S16        28.6315  -42.5969  -56.8056 S.3       11 UNK        -0.2669 
     17 C17        27.0288  -41.7193  -56.7282 C.3       11 UNK        -0.0850 
     18 CA         25.8812  -42.4517  -57.4752 C.3       10 UNK         0.0855 
     19 C          25.9264  -42.1952  -59.0118 C.2       10 UNK         0.5543 
     20 N          26.0562  -43.2044  -59.8639 N.am      10 UNK        -0.7343 
     21 O          25.8233  -41.0483  -59.4409 O.2       10 UNK        -0.5027 
     22 N          25.7867  -43.8660  -57.0773 N.am      10 UNK        -0.4495 
     23 C          24.6930  -44.6278  -57.1940 C.2       10 UNK         0.4903 
     24 O          23.5941  -44.1872  -57.5360 O.2       10 UNK        -0.4860 
     25 CA         24.8524  -46.1319  -56.8760 C.3       9 UNK         0.0227 
     26 CB         23.7591  -46.9889  -57.5472 C.3       9 UNK        -0.1964 
     27 N          26.1762  -46.6990  -57.1765 N.am      9 UNK        -0.4231 
     28 C          26.8403  -46.6471  -58.3434 C.2       9 UNK         0.5014 
     29 O          26.4742  -45.9943  -59.3212 O.2       9 UNK        -0.5270 
     30 CA         28.1210  -47.4916  -58.4447 C.3       8 UNK         0.0284 
     31 CB         29.2503  -46.8972  -57.5870 C.3       8 UNK        -0.1977 
     32 N          27.8919  -48.8894  -58.0732 N.am      8 UNK        -0.4342 
     33 C          27.0836  -49.7382  -58.7277 C.2       8 UNK         0.5039 
     34 O          26.4943  -49.4633  -59.7735 O.2       8 UNK        -0.5547 
     35 CA         26.8865  -51.1283  -58.1050 C.3       7 UNK         0.0281 
     36 CB         28.0080  -52.0877  -58.5353 C.3       7 UNK        -0.1963 
     37 N          26.8283  -51.0483  -56.6446 N.am      7 UNK        -0.4444 
     38 C          25.7186  -50.7493  -55.9542 C.2       7 UNK         0.5104 
     39 O          24.6096  -50.6071  -56.4694 O.2       7 UNK        -0.5100 
     40 CA         25.8585  -50.5782  -54.4304 C.3       6 UNK         0.0396 
     41 CB         25.4921  -51.8850  -53.7093 C.3       6 UNK        -0.1801 
     42 N          27.1946  -50.1517  -54.0068 N.am      6 UNK        -0.4747 
     43 C          27.7172  -48.9375  -54.2323 C.2       6 UNK         0.5012 
     44 O          27.1253  -48.0340  -54.8245 O.2       6 UNK        -0.5003 
     45 CA         29.1662  -48.7171  -53.7564 C.3       5 UNK         0.0782 
     46 C46        29.1878  -48.2676  -52.2759 C.3       11 UNK        -0.0868 
     47 S47        30.8815  -47.9716  -51.6613 S.3       11 UNK        -0.2515 
     48 C48        30.9617  -46.1557  -51.7089 C.3       11 UNK         0.0199 
     49 N          30.0395  -49.8752  -53.9863 N.am      5 UNK        -0.4607 
     50 C          30.2868  -50.4494  -55.1703 C.2       4 UNK         0.5031 
     51 O          29.6622  -50.1771  -56.1970 O.2       4 UNK        -0.5119 
     52 CA         31.4202  -51.4988  -55.2057 C.3       4 UNK         0.0263 
     53 CB         31.9431  -51.7432  -56.6371 C.3       4 UNK        -0.1967 
     54 N          32.5460  -51.2031  -54.3013 N.am      4 UNK        -0.4237 
     55 C          33.2749  -50.0762  -54.2723 C.2       3 UNK         0.4908 
     56 O          33.0591  -49.0973  -54.9847 O.2       3 UNK        -0.5102 
     57 CA         34.4553  -50.0363  -53.2969 C.3       3 UNK         0.0241 
     58 CB         35.7717  -50.3875  -54.0122 C.3       3 UNK        -0.1971 
     59 N          34.5431  -48.6953  -52.7219 N.am      3 UNK        -0.4139 
     60 C          34.9968  -48.4170  -51.4939 C.2       2 UNK         0.5016 
     61 O          35.4872  -49.2682  -50.7491 O.2       2 UNK        -0.5319 
     62 CA         34.8403  -46.9699  -50.9808 C.3       2 UNK         0.0286 
     63 CB         35.9141  -46.5852  -49.9394 C.3       2 UNK        -0.1963 
     64 N          34.7307  -45.9448  -52.0293 N.am      2 UNK        -0.4790 
     65 C          35.6789  -45.5287  -52.8850 C.2       1 UNK         0.5024 
     66 O          36.8114  -46.0096  -52.9385 O.2       1 UNK        -0.4888 
     67 H67        31.8501  -42.3814  -53.2754 H         1 UNK         0.0892 
     68 H68        31.9098  -42.7876  -51.5559 H         1 UNK         0.0892 
     69 H69        32.4872  -41.2163  -52.1194 H         1 UNK         0.0892 
     70 H70        33.2443  -43.9890  -54.1088 H         1 UNK         0.3107 
     71 H71        36.0784  -43.6172  -53.7071 H         1 UNK         0.0773 
     72 H72        36.3995  -44.8790  -55.6457 H         1 UNK         0.0680 
     73 H73        34.9648  -43.9654  -55.9729 H         1 UNK         0.0680 
     74 H74        32.4744  -46.6520  -56.9788 H         1 UNK         0.0650 
     75 H75        33.0451  -45.0095  -57.1437 H         1 UNK         0.0650 
     76 H76        32.5932  -46.7435  -53.8255 H         1 UNK         0.1397 
     77 H77        29.2081  -44.3612  -52.7457 H         1 UNK         0.1363 
     78 H78        30.9177  -44.0198  -56.6653 H         1 UNK         0.1355 
     79 H79        27.8680  -43.5048  -54.7169 H         1 UNK         0.0707 
     80 H80        28.9866  -42.1823  -54.4617 H         1 UNK         0.0707 
     81 H81        26.7412  -41.5823  -55.6849 H         1 UNK         0.1034 
     82 H82        27.1662  -40.7067  -57.1129 H         1 UNK         0.1034 
     83 H83        24.9554  -41.9744  -57.1477 H         1 UNK         0.0482 
     84 H84        26.1494  -44.1635  -59.5380 H         1 UNK         0.3460 
     85 H85        26.0752  -43.0120  -60.8521 H         1 UNK         0.3460 
     86 H86        26.6590  -44.3053  -56.8225 H         1 UNK         0.2989 
     87 H87        24.7272  -46.2245  -55.7964 H         1 UNK         0.0559 
     88 H88        23.8019  -46.9131  -58.6344 H         1 UNK         0.0848 
     89 H89        22.7620  -46.6758  -57.2354 H         1 UNK         0.0848 
     90 H90        23.8622  -48.0412  -57.2822 H         1 UNK         0.0848 
     91 H91        26.5900  -47.2383  -56.4170 H         1 UNK         0.3144 
     92 H92        28.4472  -47.4788  -59.4867 H         1 UNK         0.0727 
     93 H93        28.9902  -46.8632  -56.5291 H         1 UNK         0.0790 
     94 H94        29.4749  -45.8761  -57.8980 H         1 UNK         0.0790 
     95 H95        30.1690  -47.4761  -57.6839 H         1 UNK         0.0790 
     96 H96        28.4063  -49.2423  -57.2698 H         1 UNK         0.3215 
     97 H97        25.9422  -51.5320  -58.4777 H         1 UNK         0.0863 
     98 H98        27.8763  -53.0767  -58.0964 H         1 UNK         0.0808 
     99 H99        28.9921  -51.7194  -58.2477 H         1 UNK         0.0808 
    100 H100       28.0147  -52.2119  -59.6190 H         1 UNK         0.0808 
    101 H101       27.7117  -51.0887  -56.1523 H         1 UNK         0.3118 
    102 H102       25.1468  -49.8093  -54.1218 H         1 UNK         0.0546 
    103 H103       26.1783  -52.6939  -53.9630 H         1 UNK         0.0828 
    104 H104       24.4880  -52.2127  -53.9828 H         1 UNK         0.0828 
    105 H105       25.5049  -51.7589  -52.6266 H         1 UNK         0.0828 
    106 H106       27.7629  -50.8340  -53.5249 H         1 UNK         0.3005 
    107 H107       29.5702  -47.9020  -54.3609 H         1 UNK         0.1257 
    108 H108       28.7331  -49.0279  -51.6378 H         1 UNK         0.0775 
    109 H109       28.5904  -47.3637  -52.1406 H         1 UNK         0.0775 
    110 H110       30.1469  -45.7526  -51.1053 H         1 UNK         0.0840 
    111 H111       31.8794  -45.8269  -51.2234 H         1 UNK         0.0840 
    112 H112       30.6093  -50.1476  -53.1989 H         1 UNK         0.2987 
    113 H113       30.9771  -52.4309  -54.8524 H         1 UNK         0.0785 
    114 H114       31.1511  -52.1126  -57.2884 H         1 UNK         0.0798 
    115 H115       32.7399  -52.4867  -56.6481 H         1 UNK         0.0798 
    116 H116       32.3324  -50.8274  -57.0839 H         1 UNK         0.0798 
    117 H117       32.7973  -51.9485  -53.6659 H         1 UNK         0.3079 
    118 H118       34.2715  -50.7615  -52.5010 H         1 UNK         0.0794 
    119 H119       35.7207  -51.3791  -54.4636 H         1 UNK         0.0786 
    120 H120       36.6122  -50.3890  -53.3179 H         1 UNK         0.0786 
    121 H121       35.9963  -49.6753  -54.8077 H         1 UNK         0.0786 
    122 H122       34.1528  -47.9612  -53.2975 H         1 UNK         0.3032 
    123 H123       33.8826  -46.9638  -50.4586 H         1 UNK         0.1094 
    124 H124       35.7708  -45.5666  -49.5785 H         1 UNK         0.0794 
    125 H125       35.8711  -47.2426  -49.0701 H         1 UNK         0.0794 
    126 H126       36.9219  -46.6585  -50.3489 H         1 UNK         0.0794 
    127 H127       33.8459  -45.4618  -52.0763 H         1 UNK         0.3016 
@<TRIPOS>BOND
     1    1    2 1    
     2    1   67 1    
     3    1   68 1    
     4    1   69 1    
     5    2    3 2    
     6    2    4 am   BACKBONE|DICT|INTERRES
     7    4    5 1    
     8    4   70 1    
     9    5    6 1    
    10    5   65 1    
    11    5   71 1    
    12    6    7 1    
    13    6   72 1    
    14    6   73 1    
    15    7    8 1    
    16    8    9 1    
    17    8   74 1    
    18    8   75 1    
    19    9   10 ar   
    20    9   14 ar   
    21   10   11 ar   
    22   10   76 1    
    23   11   12 ar   
    24   11   48 1    
    25   12   13 ar   
    26   12   77 1    
    27   13   14 ar   
    28   13   15 1    
    29   14   78 1    
    30   15   16 1    
    31   15   79 1    
    32   15   80 1    
    33   16   17 1    
    34   17   18 1    
    35   17   81 1    
    36   17   82 1    
    37   18   19 1    
    38   18   22 1    
    39   18   83 1    
    40   19   20 am   BACKBONE|DICT|INTERRES
    41   19   21 2    
    42   20   84 1    
    43   20   85 1    
    44   22   23 am   BACKBONE|DICT|INTERRES
    45   22   86 1    
    46   23   24 2    
    47   23   25 1    
    48   25   26 1    
    49   25   27 1    
    50   25   87 1    
    51   26   88 1    
    52   26   89 1    
    53   26   90 1    
    54   27   28 am   BACKBONE|DICT|INTERRES
    55   27   91 1    
    56   28   29 2    
    57   28   30 1    
    58   30   31 1    
    59   30   32 1    
    60   30   92 1    
    61   31   93 1    
    62   31   94 1    
    63   31   95 1    
    64   32   33 am   BACKBONE|DICT|INTERRES
    65   32   96 1    
    66   33   34 2    
    67   33   35 1    
    68   35   36 1    
    69   35   37 1    
    70   35   97 1    
    71   36   98 1    
    72   36   99 1    
    73   36  100 1    
    74   37   38 am   BACKBONE|DICT|INTERRES
    75   37  101 1    
    76   38   39 2    
    77   38   40 1    
    78   40   41 1    
    79   40   42 1    
    80   40  102 1    
    81   41  103 1    
    82   41  104 1    
    83   41  105 1    
    84   42   43 am   BACKBONE|DICT|INTERRES
    85   42  106 1    
    86   43   44 2    
    87   43   45 1    
    88   45   46 1    
    89   45   49 1    
    90   45  107 1    
    91   46   47 1    
    92   46  108 1    
    93   46  109 1    
    94   47   48 1    
    95   48  110 1    
    96   48  111 1    
    97   49   50 am   BACKBONE|DICT|INTERRES
    98   49  112 1    
    99   50   51 2    
   100   50   52 1    
   101   52   53 1    
   102   52   54 1    
   103   52  113 1    
   104   53  114 1    
   105   53  115 1    
   106   53  116 1    
   107   54   55 am   BACKBONE|DICT|INTERRES
   108   54  117 1    
   109   55   56 2    
   110   55   57 1    
   111   57   58 1    
   112   57   59 1    
   113   57  118 1    
   114   58  119 1    
   115   58  120 1    
   116   58  121 1    
   117   59   60 am   BACKBONE|DICT|INTERRES
   118   59  122 1    
   119   60   61 2    
   120   60   62 1    
   121   62   63 1    
   122   62   64 1    
   123   62  123 1    
   124   63  124 1    
   125   63  125 1    
   126   63  126 1    
   127   64   65 am   BACKBONE|DICT|INTERRES
   128   64  127 1    
   129   65   66 2    
@<TRIPOS>SUBSTRUCTURE
     1 UNK         1 GROUP             0       ****    0 ROOT    
