@<TRIPOS>MOLECULE
3R134
127   129    1
SMALL
USER_CHARGES


@<TRIPOS>ATOM
      1 CA         36.1843  -43.3452  -50.9149 C.3       0 UNK        -0.1968 
      2 C          36.7210  -44.4074  -51.8634 C.2       0 UNK         0.4852 
      3 O          37.9013  -44.7539  -51.7898 O.2       0 UNK        -0.5359 
      4 N          35.8652  -44.9191  -52.7562 N.am      1 UNK        -0.4300 
      5 CA         36.1709  -46.0074  -53.6873 C.3       1 UNK         0.0863 
      6 C6         35.2470  -45.9881  -54.9365 C.3       11 UNK        -0.0953 
      7 S7         33.4496  -45.8774  -54.6002 S.3       11 UNK        -0.2369 
      8 C8         33.1894  -44.0888  -54.8209 C.3       11 UNK         0.0226 
      9 C9         31.7184  -43.6986  -54.8684 C.ar      11 UNK        -0.0699 
     10 C10        30.9278  -43.7432  -53.7154 C.ar      11 UNK        -0.0804 
     11 C11        29.6036  -43.2881  -53.7415 C.ar      11 UNK        -0.0871 
     12 C12        29.0740  -42.7816  -54.9343 C.ar      11 UNK        -0.1008 
     13 C13        29.8600  -42.7218  -56.0894 C.ar      11 UNK        -0.0735 
     14 C14        31.1718  -43.2016  -56.0544 C.ar      11 UNK        -0.0945 
     15 C15        29.3351  -42.0631  -57.3567 C.3       11 UNK         0.0169 
     16 S16        28.3726  -43.2132  -58.3838 S.3       11 UNK        -0.2669 
     17 C17        26.6491  -42.7234  -58.0172 C.3       11 UNK        -0.0850 
     18 CA         25.8792  -43.7707  -57.1637 C.3       10 UNK         0.0855 
     19 C          24.4577  -43.2824  -56.7524 C.2       10 UNK         0.5543 
     20 N          23.4612  -44.1542  -56.6563 N.am      10 UNK        -0.7343 
     21 O          24.2583  -42.1003  -56.4831 O.2       10 UNK        -0.5027 
     22 N          25.9180  -45.1299  -57.7278 N.am      10 UNK        -0.4495 
     23 C          25.4751  -45.5273  -58.9279 C.2       10 UNK         0.4903 
     24 O          24.9387  -44.7819  -59.7493 O.2       10 UNK        -0.4860 
     25 CA         25.6485  -47.0257  -59.2438 C.3       9 UNK         0.0227 
     26 CB         25.4817  -47.3616  -60.7412 C.3       9 UNK        -0.1964 
     27 N          26.8982  -47.5717  -58.7012 N.am      9 UNK        -0.4231 
     28 C          28.1597  -47.2886  -59.0648 C.2       9 UNK         0.5014 
     29 O          28.4602  -46.5603  -60.0111 O.2       9 UNK        -0.5270 
     30 CA         29.2909  -47.9268  -58.2292 C.3       8 UNK         0.0284 
     31 CB         29.9491  -46.8700  -57.3241 C.3       8 UNK        -0.1977 
     32 N          28.8473  -49.0552  -57.4028 N.am      8 UNK        -0.4342 
     33 C          28.4495  -50.2461  -57.8739 C.2       8 UNK         0.5039 
     34 O          28.5145  -50.5724  -59.0593 O.2       8 UNK        -0.5547 
     35 CA         27.8224  -51.2146  -56.8578 C.3       7 UNK         0.0281 
     36 CB         28.9009  -52.0594  -56.1595 C.3       7 UNK        -0.1963 
     37 N          27.0127  -50.5071  -55.8600 N.am      7 UNK        -0.4444 
     38 C          25.7954  -49.9957  -56.0975 C.2       7 UNK         0.5104 
     39 O          25.2056  -50.1068  -57.1714 O.2       7 UNK        -0.5100 
     40 CA         25.1335  -49.1963  -54.9595 C.3       6 UNK         0.0396 
     41 CB         24.3353  -50.1328  -54.0394 C.3       6 UNK        -0.1801 
     42 N          26.0920  -48.4283  -54.1607 N.am      6 UNK        -0.4747 
     43 C          26.7984  -47.3814  -54.6146 C.2       6 UNK         0.5012 
     44 O          26.6693  -46.9161  -55.7446 O.2       6 UNK        -0.5003 
     45 CA         27.8737  -46.8004  -53.6730 C.3       5 UNK         0.0782 
     46 C46        27.2892  -45.6439  -52.8292 C.3       11 UNK        -0.0868 
     47 S47        28.5310  -44.8988  -51.7199 S.3       11 UNK        -0.2515 
     48 C48        28.7788  -43.2530  -52.4600 C.3       11 UNK         0.0199 
     49 N          28.5053  -47.8430  -52.8505 N.am      5 UNK        -0.4607 
     50 C          29.1991  -48.8714  -53.3510 C.2       4 UNK         0.5031 
     51 O          29.3505  -49.0635  -54.5600 O.2       4 UNK        -0.5119 
     52 CA         29.7401  -49.9006  -52.3479 C.3       4 UNK         0.0263 
     53 CB         28.6897  -50.9937  -52.0899 C.3       4 UNK        -0.1967 
     54 N          30.9579  -50.5206  -52.8692 N.am      4 UNK        -0.4237 
     55 C          32.1421  -49.9011  -52.9124 C.2       3 UNK         0.4908 
     56 O          32.3728  -48.8194  -52.3655 O.2       3 UNK        -0.5102 
     57 CA         33.2386  -50.5934  -53.7277 C.3       3 UNK         0.0241 
     58 CB         33.0099  -50.3768  -55.2374 C.3       3 UNK        -0.1971 
     59 N          34.5226  -50.0289  -53.3322 N.am      3 UNK        -0.4139 
     60 C          35.7288  -50.5667  -53.5305 C.2       2 UNK         0.5016 
     61 O          35.9061  -51.6531  -54.0856 O.2       2 UNK        -0.5319 
     62 CA         36.9358  -49.7352  -53.0473 C.3       2 UNK         0.0286 
     63 CB         38.2857  -50.3462  -53.4694 C.3       2 UNK        -0.1963 
     64 N          36.8711  -48.3510  -53.5310 N.am      2 UNK        -0.4790 
     65 C          36.1526  -47.3706  -52.9677 C.2       1 UNK         0.5024 
     66 O          35.4754  -47.5305  -51.9491 O.2       1 UNK        -0.4888 
     67 H67        35.1344  -43.1218  -51.1040 H         1 UNK         0.0892 
     68 H68        36.2786  -43.6823  -49.8830 H         1 UNK         0.0892 
     69 H69        36.7521  -42.4218  -51.0255 H         1 UNK         0.0892 
     70 H70        34.8940  -44.6465  -52.7288 H         1 UNK         0.3107 
     71 H71        37.1925  -45.8567  -54.0440 H         1 UNK         0.0773 
     72 H72        35.5365  -45.1514  -55.5736 H         1 UNK         0.0680 
     73 H73        35.4161  -46.8739  -55.5517 H         1 UNK         0.0680 
     74 H74        33.6872  -43.7678  -55.7372 H         1 UNK         0.0650 
     75 H75        33.6737  -43.5476  -54.0077 H         1 UNK         0.0650 
     76 H76        31.3520  -44.1077  -52.7896 H         1 UNK         0.1397 
     77 H77        28.0647  -42.3941  -54.9570 H         1 UNK         0.1363 
     78 H78        31.7842  -43.1424  -56.9439 H         1 UNK         0.1355 
     79 H79        30.1713  -41.6978  -57.9549 H         1 UNK         0.0707 
     80 H80        28.7535  -41.1762  -57.1037 H         1 UNK         0.0707 
     81 H81        26.6444  -41.7534  -57.5190 H         1 UNK         0.1034 
     82 H82        26.1365  -42.5600  -58.9662 H         1 UNK         0.1034 
     83 H83        26.4138  -43.8563  -56.2172 H         1 UNK         0.0482 
     84 H84        22.5468  -43.8335  -56.3796 H         1 UNK         0.3460 
     85 H85        23.6172  -45.1275  -56.8620 H         1 UNK         0.3460 
     86 H86        26.2983  -45.8358  -57.0994 H         1 UNK         0.2989 
     87 H87        24.8484  -47.5376  -58.7072 H         1 UNK         0.0559 
     88 H88        24.4841  -47.0940  -61.0913 H         1 UNK         0.0848 
     89 H89        25.6143  -48.4276  -60.9258 H         1 UNK         0.0848 
     90 H90        26.1966  -46.8207  -61.3617 H         1 UNK         0.0848 
     91 H91        26.7870  -48.1625  -57.8886 H         1 UNK         0.3144 
     92 H92        30.0447  -48.2983  -58.9262 H         1 UNK         0.0727 
     93 H93        29.2279  -46.4136  -56.6464 H         1 UNK         0.0790 
     94 H94        30.3808  -46.0631  -57.9179 H         1 UNK         0.0790 
     95 H95        30.7527  -47.2969  -56.7231 H         1 UNK         0.0790 
     96 H96        28.8513  -48.9163  -56.3946 H         1 UNK         0.3215 
     97 H97        27.1689  -51.8947  -57.4090 H         1 UNK         0.0863 
     98 H98        28.4579  -52.7752  -55.4670 H         1 UNK         0.0808 
     99 H99        29.6064  -51.4440  -55.6026 H         1 UNK         0.0808 
    100 H100       29.4769  -52.6301  -56.8892 H         1 UNK         0.0808 
    101 H101       27.4565  -50.3062  -54.9754 H         1 UNK         0.3118 
    102 H102       24.4349  -48.4906  -55.4144 H         1 UNK         0.0546 
    103 H103       24.9801  -50.8526  -53.5335 H         1 UNK         0.0828 
    104 H104       23.5970  -50.7006  -54.6076 H         1 UNK         0.0828 
    105 H105       23.7927  -49.5732  -53.2773 H         1 UNK         0.0828 
    106 H106       26.2568  -48.7419  -53.2151 H         1 UNK         0.3005 
    107 H107       28.6560  -46.3809  -54.3101 H         1 UNK         0.1257 
    108 H108       26.4604  -45.9980  -52.2131 H         1 UNK         0.0775 
    109 H109       26.8751  -44.8702  -53.4791 H         1 UNK         0.0775 
    110 H110       27.8087  -42.7815  -52.6259 H         1 UNK         0.0840 
    111 H111       29.2967  -42.6241  -51.7345 H         1 UNK         0.0840 
    112 H112       28.4239  -47.7331  -51.8498 H         1 UNK         0.2987 
    113 H113       29.9693  -49.3971  -51.4060 H         1 UNK         0.0785 
    114 H114       27.7731  -50.5691  -51.6783 H         1 UNK         0.0798 
    115 H115       29.0531  -51.7281  -51.3707 H         1 UNK         0.0798 
    116 H116       28.4220  -51.5261  -53.0034 H         1 UNK         0.0798 
    117 H117       30.8443  -51.3904  -53.3682 H         1 UNK         0.3079 
    118 H118       33.2291  -51.6605  -53.4960 H         1 UNK         0.0794 
    119 H119       32.0452  -50.7747  -55.5537 H         1 UNK         0.0786 
    120 H120       33.7742  -50.8751  -55.8338 H         1 UNK         0.0786 
    121 H121       33.0230  -49.3164  -55.4947 H         1 UNK         0.0786 
    122 H122       34.4511  -49.1478  -52.8284 H         1 UNK         0.3032 
    123 H123       36.9012  -49.7343  -51.9551 H         1 UNK         0.1094 
    124 H124       39.1228  -49.7633  -53.0849 H         1 UNK         0.0794 
    125 H125       38.3954  -51.3596  -53.0807 H         1 UNK         0.0794 
    126 H126       38.3835  -50.4004  -54.5544 H         1 UNK         0.0794 
    127 H127       37.3735  -48.1553  -54.3857 H         1 UNK         0.3016 
@<TRIPOS>BOND
     1    1    2 1    
     2    1   67 1    
     3    1   68 1    
     4    1   69 1    
     5    2    3 2    
     6    2    4 am   BACKBONE|DICT|INTERRES
     7    4    5 1    
     8    4   70 1    
     9    5    6 1    
    10    5   65 1    
    11    5   71 1    
    12    6    7 1    
    13    6   72 1    
    14    6   73 1    
    15    7    8 1    
    16    8    9 1    
    17    8   74 1    
    18    8   75 1    
    19    9   10 ar   
    20    9   14 ar   
    21   10   11 ar   
    22   10   76 1    
    23   11   12 ar   
    24   11   48 1    
    25   12   13 ar   
    26   12   77 1    
    27   13   14 ar   
    28   13   15 1    
    29   14   78 1    
    30   15   16 1    
    31   15   79 1    
    32   15   80 1    
    33   16   17 1    
    34   17   18 1    
    35   17   81 1    
    36   17   82 1    
    37   18   19 1    
    38   18   22 1    
    39   18   83 1    
    40   19   20 am   BACKBONE|DICT|INTERRES
    41   19   21 2    
    42   20   84 1    
    43   20   85 1    
    44   22   23 am   BACKBONE|DICT|INTERRES
    45   22   86 1    
    46   23   24 2    
    47   23   25 1    
    48   25   26 1    
    49   25   27 1    
    50   25   87 1    
    51   26   88 1    
    52   26   89 1    
    53   26   90 1    
    54   27   28 am   BACKBONE|DICT|INTERRES
    55   27   91 1    
    56   28   29 2    
    57   28   30 1    
    58   30   31 1    
    59   30   32 1    
    60   30   92 1    
    61   31   93 1    
    62   31   94 1    
    63   31   95 1    
    64   32   33 am   BACKBONE|DICT|INTERRES
    65   32   96 1    
    66   33   34 2    
    67   33   35 1    
    68   35   36 1    
    69   35   37 1    
    70   35   97 1    
    71   36   98 1    
    72   36   99 1    
    73   36  100 1    
    74   37   38 am   BACKBONE|DICT|INTERRES
    75   37  101 1    
    76   38   39 2    
    77   38   40 1    
    78   40   41 1    
    79   40   42 1    
    80   40  102 1    
    81   41  103 1    
    82   41  104 1    
    83   41  105 1    
    84   42   43 am   BACKBONE|DICT|INTERRES
    85   42  106 1    
    86   43   44 2    
    87   43   45 1    
    88   45   46 1    
    89   45   49 1    
    90   45  107 1    
    91   46   47 1    
    92   46  108 1    
    93   46  109 1    
    94   47   48 1    
    95   48  110 1    
    96   48  111 1    
    97   49   50 am   BACKBONE|DICT|INTERRES
    98   49  112 1    
    99   50   51 2    
   100   50   52 1    
   101   52   53 1    
   102   52   54 1    
   103   52  113 1    
   104   53  114 1    
   105   53  115 1    
   106   53  116 1    
   107   54   55 am   BACKBONE|DICT|INTERRES
   108   54  117 1    
   109   55   56 2    
   110   55   57 1    
   111   57   58 1    
   112   57   59 1    
   113   57  118 1    
   114   58  119 1    
   115   58  120 1    
   116   58  121 1    
   117   59   60 am   BACKBONE|DICT|INTERRES
   118   59  122 1    
   119   60   61 2    
   120   60   62 1    
   121   62   63 1    
   122   62   64 1    
   123   62  123 1    
   124   63  124 1    
   125   63  125 1    
   126   63  126 1    
   127   64   65 am   BACKBONE|DICT|INTERRES
   128   64  127 1    
   129   65   66 2    
@<TRIPOS>SUBSTRUCTURE
     1 UNK         1 GROUP             0       ****    0 ROOT    
