@<TRIPOS>MOLECULE
3R134
127   129    1
SMALL
USER_CHARGES


@<TRIPOS>ATOM
      1 CA         38.0049  -44.4948  -54.0631 C.3       0 UNK        -0.1968 
      2 C          36.8602  -44.0839  -53.1399 C.2       0 UNK         0.4852 
      3 O          37.0419  -43.1873  -52.3174 O.2       0 UNK        -0.5359 
      4 N          35.6696  -44.6910  -53.2372 N.am      1 UNK        -0.4300 
      5 CA         35.3254  -45.8285  -54.0952 C.3       1 UNK         0.0863 
      6 C6         33.7990  -45.9078  -54.3589 C.3       11 UNK        -0.0953 
      7 S7         33.2536  -44.6163  -55.5221 S.3       11 UNK        -0.2369 
      8 C8         32.6461  -43.3153  -54.4040 C.3       11 UNK         0.0226 
      9 C9         31.1833  -43.5011  -54.0262 C.ar      11 UNK        -0.0699 
     10 C10        30.8188  -43.8302  -52.7168 C.ar      11 UNK        -0.0804 
     11 C11        29.4695  -43.9061  -52.3573 C.ar      11 UNK        -0.0871 
     12 C12        28.4872  -43.6627  -53.3206 C.ar      11 UNK        -0.1008 
     13 C13        28.8318  -43.3439  -54.6364 C.ar      11 UNK        -0.0735 
     14 C14        30.1882  -43.2719  -54.9813 C.ar      11 UNK        -0.0945 
     15 C15        27.6975  -43.0725  -55.6249 C.3       11 UNK         0.0169 
     16 S16        28.1925  -42.3235  -57.2165 S.3       11 UNK        -0.2669 
     17 C17        26.5630  -41.8678  -57.9104 C.3       11 UNK        -0.0850 
     18 CA         26.0038  -42.8893  -58.9342 C.3       10 UNK         0.0855 
     19 C          26.7393  -42.8252  -60.3062 C.2       10 UNK         0.5543 
     20 N          27.3558  -43.8965  -60.7916 N.am      10 UNK        -0.7343 
     21 O          26.7332  -41.7805  -60.9531 O.2       10 UNK        -0.5027 
     22 N          25.9086  -44.2319  -58.3460 N.am      10 UNK        -0.4495 
     23 C          25.0523  -45.1839  -58.7280 C.2       10 UNK         0.4903 
     24 O          24.1587  -45.0022  -59.5567 O.2       10 UNK        -0.4860 
     25 CA         25.2192  -46.5694  -58.0687 C.3       9 UNK         0.0227 
     26 CB         24.6918  -47.7037  -58.9724 C.3       9 UNK        -0.1964 
     27 N          26.5836  -46.8860  -57.6175 N.am      9 UNK        -0.4231 
     28 C          27.7024  -46.9082  -58.3622 C.2       9 UNK         0.5014 
     29 O          27.7760  -46.4822  -59.5155 O.2       9 UNK        -0.5270 
     30 CA         28.9401  -47.5599  -57.7215 C.3       8 UNK         0.0284 
     31 CB         29.6182  -46.6038  -56.7242 C.3       8 UNK        -0.1977 
     32 N          28.6121  -48.8267  -57.0602 N.am      8 UNK        -0.4342 
     33 C          28.1159  -49.9143  -57.6724 C.2       8 UNK         0.5039 
     34 O          27.9918  -50.0216  -58.8928 O.2       8 UNK        -0.5547 
     35 CA         27.6463  -51.0672  -56.7713 C.3       7 UNK         0.0281 
     36 CB         28.8122  -52.0020  -56.4086 C.3       7 UNK        -0.1963 
     37 N          27.0101  -50.5602  -55.5531 N.am      7 UNK        -0.4444 
     38 C          25.7212  -50.1997  -55.4692 C.2       7 UNK         0.5104 
     39 O          24.9096  -50.3513  -56.3817 O.2       7 UNK        -0.5100 
     40 CA         25.2419  -49.5661  -54.1489 C.3       6 UNK         0.0396 
     41 CB         24.5353  -50.6179  -53.2790 C.3       6 UNK        -0.1801 
     42 N          26.3141  -48.9426  -53.3692 N.am      6 UNK        -0.4747 
     43 C          26.9406  -47.8026  -53.6969 C.2       6 UNK         0.5012 
     44 O          26.6621  -47.1307  -54.6916 O.2       6 UNK        -0.5003 
     45 CA         28.1261  -47.3926  -52.7953 C.3       5 UNK         0.0782 
     46 C46        27.6399  -46.5678  -51.5796 C.3       11 UNK        -0.0868 
     47 S47        29.0352  -45.9816  -50.5556 S.3       11 UNK        -0.2515 
     48 C48        29.0679  -44.1990  -50.9183 C.3       11 UNK         0.0199 
     49 N          28.9363  -48.5449  -52.3729 N.am      5 UNK        -0.4607 
     50 C          29.5587  -49.3900  -53.1999 C.2       4 UNK         0.5031 
     51 O          29.4604  -49.3339  -54.4265 O.2       4 UNK        -0.5119 
     52 CA         30.3625  -50.5275  -52.5494 C.3       4 UNK         0.0263 
     53 CB         29.4422  -51.7256  -52.2625 C.3       4 UNK        -0.1967 
     54 N          31.4655  -50.9682  -53.4064 N.am      4 UNK        -0.4237 
     55 C          32.5182  -50.2066  -53.7289 C.2       3 UNK         0.4908 
     56 O          32.7202  -49.0826  -53.2621 O.2       3 UNK        -0.5102 
     57 CA         33.4777  -50.7889  -54.7799 C.3       3 UNK         0.0241 
     58 CB         32.8801  -50.6395  -56.1905 C.3       3 UNK        -0.1971 
     59 N          34.7631  -50.0949  -54.7427 N.am      3 UNK        -0.4139 
     60 C          35.7403  -50.3258  -53.8559 C.2       2 UNK         0.5016 
     61 O          35.7402  -51.2628  -53.0562 O.2       2 UNK        -0.5319 
     62 CA         36.9108  -49.3262  -53.8567 C.3       2 UNK         0.0286 
     63 CB         38.0338  -49.8056  -54.7910 C.3       2 UNK        -0.1963 
     64 N          36.4831  -47.9808  -54.2584 N.am      2 UNK        -0.4790 
     65 C          35.8340  -47.1304  -53.4503 C.2       1 UNK         0.5024 
     66 O          35.6264  -47.3417  -52.2535 O.2       1 UNK        -0.4888 
     67 H67        37.7310  -44.3573  -55.1087 H         1 UNK         0.0892 
     68 H68        38.8864  -43.8831  -53.8719 H         1 UNK         0.0892 
     69 H69        38.2859  -45.5350  -53.9029 H         1 UNK         0.0892 
     70 H70        34.9499  -44.4244  -52.5824 H         1 UNK         0.3107 
     71 H71        35.8217  -45.7090  -55.0599 H         1 UNK         0.0773 
     72 H72        33.2264  -45.8499  -53.4311 H         1 UNK         0.0680 
     73 H73        33.5345  -46.8647  -54.8136 H         1 UNK         0.0680 
     74 H74        32.7560  -42.3540  -54.9078 H         1 UNK         0.0650 
     75 H75        33.2758  -43.2592  -53.5159 H         1 UNK         0.0650 
     76 H76        31.5822  -44.0004  -51.9700 H         1 UNK         0.1397 
     77 H77        27.4430  -43.7051  -53.0422 H         1 UNK         0.1363 
     78 H78        30.4889  -43.0201  -55.9879 H         1 UNK         0.1355 
     79 H79        27.1772  -44.0115  -55.8163 H         1 UNK         0.0707 
     80 H80        26.9774  -42.4084  -55.1441 H         1 UNK         0.0707 
     81 H81        25.8458  -41.7421  -57.0981 H         1 UNK         0.1034 
     82 H82        26.6474  -40.8785  -58.3643 H         1 UNK         0.1034 
     83 H83        24.9842  -42.5669  -59.1544 H         1 UNK         0.0482 
     84 H84        27.3839  -44.7696  -60.2719 H         1 UNK         0.3460 
     85 H85        27.8184  -43.8339  -61.6839 H         1 UNK         0.3460 
     86 H86        26.6406  -44.4775  -57.6973 H         1 UNK         0.2989 
     87 H87        24.6044  -46.5512  -57.1678 H         1 UNK         0.0559 
     88 H88        25.2251  -47.7400  -59.9232 H         1 UNK         0.0848 
     89 H89        23.6325  -47.5722  -59.1961 H         1 UNK         0.0848 
     90 H90        24.8003  -48.6767  -58.4942 H         1 UNK         0.0848 
     91 H91        26.6593  -47.1757  -56.6451 H         1 UNK         0.3144 
     92 H92        29.6519  -47.7805  -58.5195 H         1 UNK         0.0727 
     93 H93        28.9595  -46.3387  -55.8975 H         1 UNK         0.0790 
     94 H94        29.9116  -45.6737  -57.2131 H         1 UNK         0.0790 
     95 H95        30.5212  -47.0446  -56.3005 H         1 UNK         0.0790 
     96 H96        28.7801  -48.8788  -56.0571 H         1 UNK         0.3215 
     97 H97        26.9173  -51.6528  -57.3364 H         1 UNK         0.0863 
     98 H98        28.4706  -52.8461  -55.8095 H         1 UNK         0.0808 
     99 H99        29.5915  -51.4875  -55.8489 H         1 UNK         0.0808 
    100 H100       29.2754  -52.4098  -57.3081 H         1 UNK         0.0808 
    101 H101       27.6258  -50.3425  -54.7808 H         1 UNK         0.3118 
    102 H102       24.5148  -48.7920  -54.4039 H         1 UNK         0.0546 
    103 H103       25.2139  -51.4170  -52.9780 H         1 UNK         0.0828 
    104 H104       23.7086  -51.0803  -53.8204 H         1 UNK         0.0828 
    105 H105       24.1178  -50.1719  -52.3761 H         1 UNK         0.0828 
    106 H106       26.6173  -49.4317  -52.5390 H         1 UNK         0.3005 
    107 H107       28.7722  -46.7532  -53.4019 H         1 UNK         0.1257 
    108 H108       26.9894  -47.1718  -50.9441 H         1 UNK         0.0775 
    109 H109       27.0355  -45.7180  -51.8992 H         1 UNK         0.0775 
    110 H110       28.0924  -43.7645  -50.6938 H         1 UNK         0.0840 
    111 H111       29.7725  -43.7174  -50.2386 H         1 UNK         0.0840 
    112 H112       29.0661  -48.6466  -51.3765 H         1 UNK         0.2987 
    113 H113       30.7843  -50.1670  -51.6087 H         1 UNK         0.0785 
    114 H114       28.6248  -51.4439  -51.5973 H         1 UNK         0.0798 
    115 H115       29.9860  -52.5353  -51.7754 H         1 UNK         0.0798 
    116 H116       28.9968  -52.1231  -53.1756 H         1 UNK         0.0798 
    117 H117       31.3592  -51.8666  -53.8536 H         1 UNK         0.3079 
    118 H118       33.6366  -51.8487  -54.5683 H         1 UNK         0.0794 
    119 H119       31.9540  -51.2059  -56.2880 H         1 UNK         0.0786 
    120 H120       33.5641  -51.0113  -56.9537 H         1 UNK         0.0786 
    121 H121       32.6489  -49.5989  -56.4239 H         1 UNK         0.0786 
    122 H122       34.8435  -49.2765  -55.3257 H         1 UNK         0.3032 
    123 H123       37.3078  -49.2835  -52.8394 H         1 UNK         0.1094 
    124 H124       38.8931  -49.1357  -54.7543 H         1 UNK         0.0794 
    125 H125       38.3851  -50.7966  -54.4996 H         1 UNK         0.0794 
    126 H126       37.7010  -49.8703  -55.8277 H         1 UNK         0.0794 
    127 H127       36.6436  -47.7228  -55.2224 H         1 UNK         0.3016 
@<TRIPOS>BOND
     1    1    2 1    
     2    1   67 1    
     3    1   68 1    
     4    1   69 1    
     5    2    3 2    
     6    2    4 am   BACKBONE|DICT|INTERRES
     7    4    5 1    
     8    4   70 1    
     9    5    6 1    
    10    5   65 1    
    11    5   71 1    
    12    6    7 1    
    13    6   72 1    
    14    6   73 1    
    15    7    8 1    
    16    8    9 1    
    17    8   74 1    
    18    8   75 1    
    19    9   10 ar   
    20    9   14 ar   
    21   10   11 ar   
    22   10   76 1    
    23   11   12 ar   
    24   11   48 1    
    25   12   13 ar   
    26   12   77 1    
    27   13   14 ar   
    28   13   15 1    
    29   14   78 1    
    30   15   16 1    
    31   15   79 1    
    32   15   80 1    
    33   16   17 1    
    34   17   18 1    
    35   17   81 1    
    36   17   82 1    
    37   18   19 1    
    38   18   22 1    
    39   18   83 1    
    40   19   20 am   BACKBONE|DICT|INTERRES
    41   19   21 2    
    42   20   84 1    
    43   20   85 1    
    44   22   23 am   BACKBONE|DICT|INTERRES
    45   22   86 1    
    46   23   24 2    
    47   23   25 1    
    48   25   26 1    
    49   25   27 1    
    50   25   87 1    
    51   26   88 1    
    52   26   89 1    
    53   26   90 1    
    54   27   28 am   BACKBONE|DICT|INTERRES
    55   27   91 1    
    56   28   29 2    
    57   28   30 1    
    58   30   31 1    
    59   30   32 1    
    60   30   92 1    
    61   31   93 1    
    62   31   94 1    
    63   31   95 1    
    64   32   33 am   BACKBONE|DICT|INTERRES
    65   32   96 1    
    66   33   34 2    
    67   33   35 1    
    68   35   36 1    
    69   35   37 1    
    70   35   97 1    
    71   36   98 1    
    72   36   99 1    
    73   36  100 1    
    74   37   38 am   BACKBONE|DICT|INTERRES
    75   37  101 1    
    76   38   39 2    
    77   38   40 1    
    78   40   41 1    
    79   40   42 1    
    80   40  102 1    
    81   41  103 1    
    82   41  104 1    
    83   41  105 1    
    84   42   43 am   BACKBONE|DICT|INTERRES
    85   42  106 1    
    86   43   44 2    
    87   43   45 1    
    88   45   46 1    
    89   45   49 1    
    90   45  107 1    
    91   46   47 1    
    92   46  108 1    
    93   46  109 1    
    94   47   48 1    
    95   48  110 1    
    96   48  111 1    
    97   49   50 am   BACKBONE|DICT|INTERRES
    98   49  112 1    
    99   50   51 2    
   100   50   52 1    
   101   52   53 1    
   102   52   54 1    
   103   52  113 1    
   104   53  114 1    
   105   53  115 1    
   106   53  116 1    
   107   54   55 am   BACKBONE|DICT|INTERRES
   108   54  117 1    
   109   55   56 2    
   110   55   57 1    
   111   57   58 1    
   112   57   59 1    
   113   57  118 1    
   114   58  119 1    
   115   58  120 1    
   116   58  121 1    
   117   59   60 am   BACKBONE|DICT|INTERRES
   118   59  122 1    
   119   60   61 2    
   120   60   62 1    
   121   62   63 1    
   122   62   64 1    
   123   62  123 1    
   124   63  124 1    
   125   63  125 1    
   126   63  126 1    
   127   64   65 am   BACKBONE|DICT|INTERRES
   128   64  127 1    
   129   65   66 2    
@<TRIPOS>SUBSTRUCTURE
     1 UNK         1 GROUP             0       ****    0 ROOT    
