@<TRIPOS>MOLECULE
3R134
127   129    1
SMALL
USER_CHARGES


@<TRIPOS>ATOM
      1 CA         36.0614  -43.8352  -47.7488 C.3       0 UNK        -0.1968 
      2 C          36.0196  -43.7999  -49.2696 C.2       0 UNK         0.4852 
      3 O          36.6130  -42.9070  -49.8771 O.2       0 UNK        -0.5359 
      4 N          35.3298  -44.7645  -49.8853 N.am      1 UNK        -0.4300 
      5 CA         35.1749  -44.9143  -51.3310 C.3       1 UNK         0.0863 
      6 C6         34.1631  -43.9096  -51.9494 C.3       11 UNK        -0.0953 
      7 S7         32.5202  -43.8590  -51.1463 S.3       11 UNK        -0.2369 
      8 C8         31.5228  -44.9677  -52.1893 C.3       11 UNK         0.0226 
      9 C9         31.1665  -44.3509  -53.5342 C.ar      11 UNK        -0.0699 
     10 C10        31.9638  -44.5939  -54.6557 C.ar      11 UNK        -0.0804 
     11 C11        31.6424  -44.0315  -55.8946 C.ar      11 UNK        -0.0871 
     12 C12        30.4917  -43.2477  -56.0139 C.ar      11 UNK        -0.1008 
     13 C13        29.6773  -43.0070  -54.9031 C.ar      11 UNK        -0.0735 
     14 C14        30.0262  -43.5527  -53.6632 C.ar      11 UNK        -0.0945 
     15 C15        28.4342  -42.1383  -55.0449 C.3       11 UNK         0.0169 
     16 S16        26.9032  -43.0011  -54.5616 S.3       11 UNK        -0.2669 
     17 C17        26.8536  -44.4035  -55.7282 C.3       11 UNK        -0.0850 
     18 CA         25.8639  -44.1842  -56.8987 C.3       10 UNK         0.0855 
     19 C          26.5097  -43.3607  -58.0477 C.2       10 UNK         0.5543 
     20 N          26.2302  -42.0661  -58.1189 N.am      10 UNK        -0.7343 
     21 O          27.2882  -43.8749  -58.8466 O.2       10 UNK        -0.5027 
     22 N          25.2994  -45.4643  -57.3534 N.am      10 UNK        -0.4495 
     23 C          24.2638  -45.5810  -58.1949 C.2       10 UNK         0.4903 
     24 O          23.6596  -44.6145  -58.6639 O.2       10 UNK        -0.4860 
     25 CA         23.7811  -47.0083  -58.5305 C.3       9 UNK         0.0227 
     26 CB         22.9925  -47.0707  -59.8567 C.3       9 UNK        -0.1964 
     27 N          24.8280  -48.0375  -58.5076 N.am      9 UNK        -0.4231 
     28 C          25.9278  -48.1172  -59.2691 C.2       9 UNK         0.5014 
     29 O          26.2532  -47.2563  -60.0881 O.2       9 UNK        -0.5270 
     30 CA         26.7848  -49.3954  -59.1134 C.3       8 UNK         0.0284 
     31 CB         28.1104  -49.3130  -59.8938 C.3       8 UNK        -0.1977 
     32 N          27.0730  -49.7613  -57.7204 N.am      8 UNK        -0.4342 
     33 C          26.2018  -50.2771  -56.8419 C.2       8 UNK         0.5039 
     34 O          25.0174  -50.4877  -57.1077 O.2       8 UNK        -0.5547 
     35 CA         26.7149  -50.5815  -55.4242 C.3       7 UNK         0.0281 
     36 CB         27.2844  -52.0069  -55.3513 C.3       7 UNK        -0.1963 
     37 N          27.7184  -49.6264  -54.9495 N.am      7 UNK        -0.4444 
     38 C          27.4862  -48.3280  -54.7074 C.2       7 UNK         0.5104 
     39 O          26.3837  -47.7940  -54.8303 O.2       7 UNK        -0.5100 
     40 CA         28.7023  -47.4792  -54.2891 C.3       6 UNK         0.0396 
     41 CB         29.0411  -47.7169  -52.8090 C.3       6 UNK        -0.1801 
     42 N          29.8790  -47.7394  -55.1246 N.am      6 UNK        -0.4747 
     43 C          29.9244  -47.5489  -56.4537 C.2       6 UNK         0.5012 
     44 O          28.9961  -47.0704  -57.1052 O.2       6 UNK        -0.5003 
     45 CA         31.1790  -48.0607  -57.1938 C.3       5 UNK         0.0782 
     46 C46        32.3382  -47.0402  -57.2213 C.3       11 UNK        -0.0868 
     47 S47        31.9720  -45.5508  -58.2059 S.3       11 UNK        -0.2515 
     48 C48        32.5564  -44.2330  -57.0956 C.3       11 UNK         0.0199 
     49 N          31.6293  -49.3372  -56.6382 N.am      5 UNK        -0.4607 
     50 C          30.9895  -50.5027  -56.7933 C.2       4 UNK         0.5031 
     51 O          29.9690  -50.6382  -57.4657 O.2       4 UNK        -0.5119 
     52 CA         31.5670  -51.7086  -56.0335 C.3       4 UNK         0.0263 
     53 CB         32.7035  -52.3609  -56.8363 C.3       4 UNK        -0.1967 
     54 N          32.0499  -51.3477  -54.6970 N.am      4 UNK        -0.4237 
     55 C          31.2545  -50.9316  -53.7010 C.2       3 UNK         0.4908 
     56 O          30.0289  -50.8762  -53.7894 O.2       3 UNK        -0.5102 
     57 CA         31.9334  -50.4641  -52.4026 C.3       3 UNK         0.0241 
     58 CB         32.0890  -51.6394  -51.4248 C.3       3 UNK        -0.1971 
     59 N          33.2353  -49.8204  -52.6089 N.am      3 UNK        -0.4139 
     60 C          33.4268  -48.6773  -53.2818 C.2       2 UNK         0.5016 
     61 O          32.5290  -48.0581  -53.8568 O.2       2 UNK        -0.5319 
     62 CA         34.8756  -48.1702  -53.3769 C.3       2 UNK         0.0286 
     63 CB         35.3818  -48.2676  -54.8258 C.3       2 UNK        -0.1963 
     64 N          35.0305  -46.7907  -52.9047 N.am      2 UNK        -0.4790 
     65 C          34.8510  -46.3886  -51.6383 C.2       1 UNK         0.5024 
     66 O          34.4828  -47.1371  -50.7277 O.2       1 UNK        -0.4888 
     67 H67        35.4949  -44.6743  -47.3450 H         1 UNK         0.0892 
     68 H68        35.6417  -42.9160  -47.3410 H         1 UNK         0.0892 
     69 H69        37.0911  -43.9233  -47.4031 H         1 UNK         0.0892 
     70 H70        34.8898  -45.5090  -49.3577 H         1 UNK         0.3107 
     71 H71        36.1516  -44.7251  -51.7822 H         1 UNK         0.0773 
     72 H72        34.5776  -42.9040  -51.8670 H         1 UNK         0.0680 
     73 H73        34.0595  -44.0746  -53.0197 H         1 UNK         0.0680 
     74 H74        32.0459  -45.9135  -52.3276 H         1 UNK         0.0650 
     75 H75        30.6070  -45.2045  -51.6466 H         1 UNK         0.0650 
     76 H76        32.8413  -45.2169  -54.5578 H         1 UNK         0.1397 
     77 H77        30.2361  -42.8196  -56.9738 H         1 UNK         0.1363 
     78 H78        29.4029  -43.3627  -52.8001 H         1 UNK         0.1355 
     79 H79        28.3273  -41.7742  -56.0676 H         1 UNK         0.0707 
     80 H80        28.5505  -41.2541  -54.4170 H         1 UNK         0.0707 
     81 H81        26.5250  -45.2524  -55.1305 H         1 UNK         0.1034 
     82 H82        27.8512  -44.6672  -56.0859 H         1 UNK         0.1034 
     83 H83        25.0142  -43.6156  -56.5140 H         1 UNK         0.0482 
     84 H84        25.6017  -41.6344  -57.4595 H         1 UNK         0.3460 
     85 H85        26.6468  -41.5130  -58.8511 H         1 UNK         0.3460 
     86 H86        25.7617  -46.3033  -57.0324 H         1 UNK         0.2989 
     87 H87        23.0900  -47.2780  -57.7308 H         1 UNK         0.0559 
     88 H88        22.6334  -48.0797  -60.0590 H         1 UNK         0.0848 
     89 H89        23.6028  -46.7552  -60.7036 H         1 UNK         0.0848 
     90 H90        22.1179  -46.4198  -59.8265 H         1 UNK         0.0848 
     91 H91        24.6676  -48.8231  -57.8786 H         1 UNK         0.3144 
     92 H92        26.2023  -50.2076  -59.5530 H         1 UNK         0.0727 
     93 H93        28.6697  -50.2463  -59.8286 H         1 UNK         0.0790 
     94 H94        28.7461  -48.5111  -59.5176 H         1 UNK         0.0790 
     95 H95        27.9334  -49.1206  -60.9527 H         1 UNK         0.0790 
     96 H96        28.0352  -49.6504  -57.4213 H         1 UNK         0.3215 
     97 H97        25.8594  -50.5229  -54.7480 H         1 UNK         0.0863 
     98 H98        27.5778  -52.2652  -54.3336 H         1 UNK         0.0808 
     99 H99        28.1593  -52.1254  -55.9912 H         1 UNK         0.0808 
    100 H100       26.5434  -52.7406  -55.6715 H         1 UNK         0.0808 
    101 H101       28.6436  -49.9977  -54.7451 H         1 UNK         0.3118 
    102 H102       28.4549  -46.4242  -54.4103 H         1 UNK         0.0546 
    103 H103       28.2888  -47.2603  -52.1652 H         1 UNK         0.0828 
    104 H104       30.0053  -47.2895  -52.5431 H         1 UNK         0.0828 
    105 H105       29.0745  -48.7767  -52.5590 H         1 UNK         0.0828 
    106 H106       30.7150  -48.0779  -54.6566 H         1 UNK         0.3005 
    107 H107       30.8801  -48.2468  -58.2281 H         1 UNK         0.1257 
    108 H108       33.2221  -47.5007  -57.6654 H         1 UNK         0.0775 
    109 H109       32.6267  -46.7698  -56.2075 H         1 UNK         0.0775 
    110 H110       33.5751  -44.4540  -56.7726 H         1 UNK         0.0840 
    111 H111       32.6181  -43.3027  -57.6622 H         1 UNK         0.0840 
    112 H112       32.4235  -49.2985  -56.0169 H         1 UNK         0.2987 
    113 H113       30.7655  -52.4416  -55.9174 H         1 UNK         0.0785 
    114 H114       33.5485  -51.6841  -56.9696 H         1 UNK         0.0798 
    115 H115       32.3598  -52.6524  -57.8299 H         1 UNK         0.0798 
    116 H116       33.0691  -53.2629  -56.3451 H         1 UNK         0.0798 
    117 H117       33.0461  -51.3836  -54.5385 H         1 UNK         0.3079 
    118 H118       31.2757  -49.7250  -51.9411 H         1 UNK         0.0794 
    119 H119       32.7643  -52.4033  -51.8124 H         1 UNK         0.0786 
    120 H120       31.1274  -52.1197  -51.2366 H         1 UNK         0.0786 
    121 H121       32.4751  -51.3058  -50.4613 H         1 UNK         0.0786 
    122 H122       34.0286  -50.2633  -52.1676 H         1 UNK         0.3032 
    123 H123       35.5105  -48.8042  -52.7538 H         1 UNK         0.1094 
    124 H124       36.4379  -48.0061  -54.8947 H         1 UNK         0.0794 
    125 H125       35.2771  -49.2823  -55.2124 H         1 UNK         0.0794 
    126 H126       34.8302  -47.6052  -55.4932 H         1 UNK         0.0794 
    127 H127       35.3251  -46.1137  -53.5932 H         1 UNK         0.3016 
@<TRIPOS>BOND
     1    1    2 1    
     2    1   67 1    
     3    1   68 1    
     4    1   69 1    
     5    2    3 2    
     6    2    4 am   BACKBONE|DICT|INTERRES
     7    4    5 1    
     8    4   70 1    
     9    5    6 1    
    10    5   65 1    
    11    5   71 1    
    12    6    7 1    
    13    6   72 1    
    14    6   73 1    
    15    7    8 1    
    16    8    9 1    
    17    8   74 1    
    18    8   75 1    
    19    9   10 ar   
    20    9   14 ar   
    21   10   11 ar   
    22   10   76 1    
    23   11   12 ar   
    24   11   48 1    
    25   12   13 ar   
    26   12   77 1    
    27   13   14 ar   
    28   13   15 1    
    29   14   78 1    
    30   15   16 1    
    31   15   79 1    
    32   15   80 1    
    33   16   17 1    
    34   17   18 1    
    35   17   81 1    
    36   17   82 1    
    37   18   19 1    
    38   18   22 1    
    39   18   83 1    
    40   19   20 am   BACKBONE|DICT|INTERRES
    41   19   21 2    
    42   20   84 1    
    43   20   85 1    
    44   22   23 am   BACKBONE|DICT|INTERRES
    45   22   86 1    
    46   23   24 2    
    47   23   25 1    
    48   25   26 1    
    49   25   27 1    
    50   25   87 1    
    51   26   88 1    
    52   26   89 1    
    53   26   90 1    
    54   27   28 am   BACKBONE|DICT|INTERRES
    55   27   91 1    
    56   28   29 2    
    57   28   30 1    
    58   30   31 1    
    59   30   32 1    
    60   30   92 1    
    61   31   93 1    
    62   31   94 1    
    63   31   95 1    
    64   32   33 am   BACKBONE|DICT|INTERRES
    65   32   96 1    
    66   33   34 2    
    67   33   35 1    
    68   35   36 1    
    69   35   37 1    
    70   35   97 1    
    71   36   98 1    
    72   36   99 1    
    73   36  100 1    
    74   37   38 am   BACKBONE|DICT|INTERRES
    75   37  101 1    
    76   38   39 2    
    77   38   40 1    
    78   40   41 1    
    79   40   42 1    
    80   40  102 1    
    81   41  103 1    
    82   41  104 1    
    83   41  105 1    
    84   42   43 am   BACKBONE|DICT|INTERRES
    85   42  106 1    
    86   43   44 2    
    87   43   45 1    
    88   45   46 1    
    89   45   49 1    
    90   45  107 1    
    91   46   47 1    
    92   46  108 1    
    93   46  109 1    
    94   47   48 1    
    95   48  110 1    
    96   48  111 1    
    97   49   50 am   BACKBONE|DICT|INTERRES
    98   49  112 1    
    99   50   51 2    
   100   50   52 1    
   101   52   53 1    
   102   52   54 1    
   103   52  113 1    
   104   53  114 1    
   105   53  115 1    
   106   53  116 1    
   107   54   55 am   BACKBONE|DICT|INTERRES
   108   54  117 1    
   109   55   56 2    
   110   55   57 1    
   111   57   58 1    
   112   57   59 1    
   113   57  118 1    
   114   58  119 1    
   115   58  120 1    
   116   58  121 1    
   117   59   60 am   BACKBONE|DICT|INTERRES
   118   59  122 1    
   119   60   61 2    
   120   60   62 1    
   121   62   63 1    
   122   62   64 1    
   123   62  123 1    
   124   63  124 1    
   125   63  125 1    
   126   63  126 1    
   127   64   65 am   BACKBONE|DICT|INTERRES
   128   64  127 1    
   129   65   66 2    
@<TRIPOS>SUBSTRUCTURE
     1 UNK         1 GROUP             0       ****    0 ROOT    
