@<TRIPOS>MOLECULE
3R134
127   129    1
SMALL
USER_CHARGES


@<TRIPOS>ATOM
      1 CA         31.2318  -43.8003  -59.8678 C.3       0 UNK        -0.1968 
      2 C          31.3655  -44.2530  -58.4221 C.2       0 UNK         0.4852 
      3 O          30.5131  -43.9379  -57.5943 O.2       0 UNK        -0.5359 
      4 N          32.4387  -44.9879  -58.1215 N.am      1 UNK        -0.4300 
      5 CA         32.7981  -45.4958  -56.7998 C.3       1 UNK         0.0863 
      6 C6         33.5797  -44.4247  -55.9914 C.3       11 UNK        -0.0953 
      7 S7         33.8097  -44.8189  -54.2210 S.3       11 UNK        -0.2369 
      8 C8         32.7885  -43.5634  -53.3847 C.3       11 UNK         0.0226 
      9 C9         31.3959  -44.0866  -53.0660 C.ar      11 UNK        -0.0699 
     10 C10        31.0564  -44.4362  -51.7547 C.ar      11 UNK        -0.0804 
     11 C11        29.7718  -44.8989  -51.4522 C.ar      11 UNK        -0.0871 
     12 C12        28.8278  -45.0212  -52.4762 C.ar      11 UNK        -0.1008 
     13 C13        29.1609  -44.6900  -53.7922 C.ar      11 UNK        -0.0735 
     14 C14        30.4418  -44.2115  -54.0786 C.ar      11 UNK        -0.0945 
     15 C15        28.1445  -44.8898  -54.9039 C.3       11 UNK         0.0169 
     16 S16        26.9440  -43.5244  -54.9963 S.3       11 UNK        -0.2669 
     17 C17        27.8617  -42.2821  -55.9747 C.3       11 UNK        -0.0850 
     18 CA         27.2910  -42.1092  -57.4083 C.3       10 UNK         0.0855 
     19 C          28.0052  -40.9484  -58.1567 C.2       10 UNK         0.5543 
     20 N          27.6321  -39.7098  -57.8641 N.am      10 UNK        -0.7343 
     21 O          28.9066  -41.1481  -58.9681 O.2       10 UNK        -0.5027 
     22 N          27.2946  -43.3823  -58.1436 N.am      10 UNK        -0.4495 
     23 C          26.6903  -43.6117  -59.3169 C.2       10 UNK         0.4903 
     24 O          26.0700  -42.7607  -59.9551 O.2       10 UNK        -0.4860 
     25 CA         26.7377  -45.0579  -59.8410 C.3       9 UNK         0.0227 
     26 CB         28.0363  -45.3335  -60.6126 C.3       9 UNK        -0.1964 
     27 N          26.6062  -46.0280  -58.7537 N.am      9 UNK        -0.4231 
     28 C          25.4674  -46.3289  -58.1212 C.2       9 UNK         0.5014 
     29 O          24.3646  -45.9155  -58.4854 O.2       9 UNK        -0.5270 
     30 CA         25.5769  -47.2237  -56.8661 C.3       8 UNK         0.0284 
     31 CB         24.2091  -47.7549  -56.3974 C.3       8 UNK        -0.1977 
     32 N          26.5018  -48.3588  -56.9766 N.am      8 UNK        -0.4342 
     33 C          27.8378  -48.3241  -57.0611 C.2       8 UNK         0.5039 
     34 O          28.4847  -47.2827  -57.1815 O.2       8 UNK        -0.5547 
     35 CA         28.5639  -49.6811  -56.9707 C.3       7 UNK         0.0281 
     36 CB         30.0736  -49.5554  -57.2428 C.3       7 UNK        -0.1963 
     37 N          28.3707  -50.2896  -55.6520 N.am      7 UNK        -0.4444 
     38 C          27.2389  -50.8671  -55.2227 C.2       7 UNK         0.5104 
     39 O          26.2623  -51.0635  -55.9482 O.2       7 UNK        -0.5100 
     40 CA         27.1572  -51.2555  -53.7337 C.3       6 UNK         0.0396 
     41 CB         27.4186  -52.7597  -53.5589 C.3       6 UNK        -0.1801 
     42 N          28.0739  -50.5069  -52.8679 N.am      6 UNK        -0.4747 
     43 C          28.0758  -49.1777  -52.6755 C.2       6 UNK         0.5012 
     44 O          27.2420  -48.4212  -53.1737 O.2       6 UNK        -0.5003 
     45 CA         29.1977  -48.5850  -51.7920 C.3       5 UNK         0.0782 
     46 C46        28.5997  -47.9167  -50.5290 C.3       11 UNK        -0.0868 
     47 S47        29.8472  -46.9660  -49.5958 S.3       11 UNK        -0.2515 
     48 C48        29.4026  -45.2503  -50.0175 C.3       11 UNK         0.0199 
     49 N          30.2429  -49.5570  -51.4373 N.am      5 UNK        -0.4607 
     50 C          31.1390  -50.0817  -52.2802 C.2       4 UNK         0.5031 
     51 O          31.1677  -49.8499  -53.4918 O.2       4 UNK        -0.5119 
     52 CA         32.1245  -51.0823  -51.6684 C.3       4 UNK         0.0263 
     53 CB         31.5245  -52.4989  -51.6500 C.3       4 UNK        -0.1967 
     54 N          33.3410  -51.0802  -52.4702 N.am      4 UNK        -0.4237 
     55 C          34.5914  -51.1206  -51.9949 C.2       3 UNK         0.4908 
     56 O          34.8631  -51.2773  -50.8035 O.2       3 UNK        -0.5102 
     57 CA         35.7454  -50.9604  -53.0073 C.3       3 UNK         0.0241 
     58 CB         36.4725  -52.3008  -53.2092 C.3       3 UNK        -0.1971 
     59 N          35.3386  -50.4380  -54.3180 N.am      3 UNK        -0.4139 
     60 C          34.8531  -49.2092  -54.5420 C.2       2 UNK         0.5016 
     61 O          34.7240  -48.3556  -53.6609 O.2       2 UNK        -0.5319 
     62 CA         34.4152  -48.8981  -55.9809 C.3       2 UNK         0.0286 
     63 CB         33.5264  -50.0097  -56.5769 C.3       2 UNK        -0.1963 
     64 N          33.6896  -47.6305  -55.9890 N.am      2 UNK        -0.4790 
     65 C          33.6015  -46.7917  -57.0237 C.2       1 UNK         0.5024 
     66 O          34.1243  -47.0086  -58.1220 O.2       1 UNK        -0.4888 
     67 H67        31.2837  -44.6502  -60.5479 H         1 UNK         0.0892 
     68 H68        30.2804  -43.2931  -60.0262 H         1 UNK         0.0892 
     69 H69        32.0294  -43.1026  -60.1214 H         1 UNK         0.0892 
     70 H70        33.0757  -45.2904  -58.8493 H         1 UNK         0.3107 
     71 H71        31.8813  -45.7626  -56.2690 H         1 UNK         0.0773 
     72 H72        33.0655  -43.4662  -56.0682 H         1 UNK         0.0680 
     73 H73        34.5642  -44.2586  -56.4328 H         1 UNK         0.0680 
     74 H74        32.7201  -42.6549  -53.9841 H         1 UNK         0.0650 
     75 H75        33.2972  -43.2727  -52.4643 H         1 UNK         0.0650 
     76 H76        31.7904  -44.3440  -50.9657 H         1 UNK         0.1397 
     77 H77        27.8328  -45.3829  -52.2559 H         1 UNK         0.1363 
     78 H78        30.7042  -43.9475  -55.0921 H         1 UNK         0.1355 
     79 H79        28.6446  -45.0100  -55.8654 H         1 UNK         0.0707 
     80 H80        27.6106  -45.8227  -54.7212 H         1 UNK         0.0707 
     81 H81        28.9203  -42.5416  -56.0130 H         1 UNK         0.1034 
     82 H82        27.8097  -41.3380  -55.4294 H         1 UNK         0.1034 
     83 H83        26.2420  -41.8213  -57.3122 H         1 UNK         0.0482 
     84 H84        26.8960  -39.5280  -57.1995 H         1 UNK         0.3460 
     85 H85        28.0884  -38.9398  -58.3280 H         1 UNK         0.3460 
     86 H86        27.8282  -44.1259  -57.7188 H         1 UNK         0.2989 
     87 H87        25.9015  -45.1889  -60.5312 H         1 UNK         0.0559 
     88 H88        28.8964  -45.3655  -59.9450 H         1 UNK         0.0848 
     89 H89        28.2231  -44.5631  -61.3621 H         1 UNK         0.0848 
     90 H90        27.9879  -46.2893  -61.1343 H         1 UNK         0.0848 
     91 H91        27.4629  -46.4078  -58.3496 H         1 UNK         0.3144 
     92 H92        25.9536  -46.5768  -56.0741 H         1 UNK         0.0727 
     93 H93        24.3002  -48.3191  -55.4686 H         1 UNK         0.0790 
     94 H94        23.7542  -48.4067  -57.1443 H         1 UNK         0.0790 
     95 H95        23.5120  -46.9378  -56.2062 H         1 UNK         0.0790 
     96 H96        26.0885  -49.2785  -56.8548 H         1 UNK         0.3215 
     97 H97        28.1374  -50.3371  -57.7328 H         1 UNK         0.0863 
     98 H98        30.5675  -48.9302  -56.4972 H         1 UNK         0.0808 
     99 H99        30.2604  -49.1063  -58.2192 H         1 UNK         0.0808 
    100 H100       30.5568  -50.5323  -57.2386 H         1 UNK         0.0808 
    101 H101       29.1119  -50.1465  -54.9785 H         1 UNK         0.3118 
    102 H102       26.1402  -51.0420  -53.3986 H         1 UNK         0.0546 
    103 H103       27.2740  -53.0717  -52.5244 H         1 UNK         0.0828 
    104 H104       28.4330  -53.0310  -53.8544 H         1 UNK         0.0828 
    105 H105       26.7332  -53.3486  -54.1703 H         1 UNK         0.0828 
    106 H106       28.7966  -51.0416  -52.4092 H         1 UNK         0.3005 
    107 H107       29.6698  -47.8076  -52.3979 H         1 UNK         0.1257 
    108 H108       28.1782  -48.6720  -49.8631 H         1 UNK         0.0775 
    109 H109       27.7701  -47.2559  -50.7855 H         1 UNK         0.0775 
    110 H110       28.3374  -45.0899  -49.8434 H         1 UNK         0.0840 
    111 H111       29.9210  -44.5776  -49.3325 H         1 UNK         0.0840 
    112 H112       30.2910  -49.8042  -50.4591 H         1 UNK         0.2987 
    113 H113       32.3487  -50.7657  -50.6472 H         1 UNK         0.0785 
    114 H114       32.2252  -53.2177  -51.2248 H         1 UNK         0.0798 
    115 H115       30.6181  -52.5358  -51.0445 H         1 UNK         0.0798 
    116 H116       31.2644  -52.8403  -52.6529 H         1 UNK         0.0798 
    117 H117       33.1944  -50.8760  -53.4498 H         1 UNK         0.3079 
    118 H118       36.4525  -50.2504  -52.5730 H         1 UNK         0.0794 
    119 H119       37.3454  -52.1874  -53.8524 H         1 UNK         0.0786 
    120 H120       35.8189  -53.0512  -53.6560 H         1 UNK         0.0786 
    121 H121       36.8254  -52.7020  -52.2580 H         1 UNK         0.0786 
    122 H122       35.4142  -51.0768  -55.0966 H         1 UNK         0.3032 
    123 H123       35.3223  -48.7960  -56.5812 H         1 UNK         0.1094 
    124 H124       32.6722  -50.2244  -55.9338 H         1 UNK         0.0794 
    125 H125       33.1433  -49.7301  -57.5585 H         1 UNK         0.0794 
    126 H126       34.0797  -50.9394  -56.7112 H         1 UNK         0.0794 
    127 H127       33.3445  -47.3413  -55.0803 H         1 UNK         0.3016 
@<TRIPOS>BOND
     1    1    2 1    
     2    1   67 1    
     3    1   68 1    
     4    1   69 1    
     5    2    3 2    
     6    2    4 am   BACKBONE|DICT|INTERRES
     7    4    5 1    
     8    4   70 1    
     9    5    6 1    
    10    5   65 1    
    11    5   71 1    
    12    6    7 1    
    13    6   72 1    
    14    6   73 1    
    15    7    8 1    
    16    8    9 1    
    17    8   74 1    
    18    8   75 1    
    19    9   10 ar   
    20    9   14 ar   
    21   10   11 ar   
    22   10   76 1    
    23   11   12 ar   
    24   11   48 1    
    25   12   13 ar   
    26   12   77 1    
    27   13   14 ar   
    28   13   15 1    
    29   14   78 1    
    30   15   16 1    
    31   15   79 1    
    32   15   80 1    
    33   16   17 1    
    34   17   18 1    
    35   17   81 1    
    36   17   82 1    
    37   18   19 1    
    38   18   22 1    
    39   18   83 1    
    40   19   20 am   BACKBONE|DICT|INTERRES
    41   19   21 2    
    42   20   84 1    
    43   20   85 1    
    44   22   23 am   BACKBONE|DICT|INTERRES
    45   22   86 1    
    46   23   24 2    
    47   23   25 1    
    48   25   26 1    
    49   25   27 1    
    50   25   87 1    
    51   26   88 1    
    52   26   89 1    
    53   26   90 1    
    54   27   28 am   BACKBONE|DICT|INTERRES
    55   27   91 1    
    56   28   29 2    
    57   28   30 1    
    58   30   31 1    
    59   30   32 1    
    60   30   92 1    
    61   31   93 1    
    62   31   94 1    
    63   31   95 1    
    64   32   33 am   BACKBONE|DICT|INTERRES
    65   32   96 1    
    66   33   34 2    
    67   33   35 1    
    68   35   36 1    
    69   35   37 1    
    70   35   97 1    
    71   36   98 1    
    72   36   99 1    
    73   36  100 1    
    74   37   38 am   BACKBONE|DICT|INTERRES
    75   37  101 1    
    76   38   39 2    
    77   38   40 1    
    78   40   41 1    
    79   40   42 1    
    80   40  102 1    
    81   41  103 1    
    82   41  104 1    
    83   41  105 1    
    84   42   43 am   BACKBONE|DICT|INTERRES
    85   42  106 1    
    86   43   44 2    
    87   43   45 1    
    88   45   46 1    
    89   45   49 1    
    90   45  107 1    
    91   46   47 1    
    92   46  108 1    
    93   46  109 1    
    94   47   48 1    
    95   48  110 1    
    96   48  111 1    
    97   49   50 am   BACKBONE|DICT|INTERRES
    98   49  112 1    
    99   50   51 2    
   100   50   52 1    
   101   52   53 1    
   102   52   54 1    
   103   52  113 1    
   104   53  114 1    
   105   53  115 1    
   106   53  116 1    
   107   54   55 am   BACKBONE|DICT|INTERRES
   108   54  117 1    
   109   55   56 2    
   110   55   57 1    
   111   57   58 1    
   112   57   59 1    
   113   57  118 1    
   114   58  119 1    
   115   58  120 1    
   116   58  121 1    
   117   59   60 am   BACKBONE|DICT|INTERRES
   118   59  122 1    
   119   60   61 2    
   120   60   62 1    
   121   62   63 1    
   122   62   64 1    
   123   62  123 1    
   124   63  124 1    
   125   63  125 1    
   126   63  126 1    
   127   64   65 am   BACKBONE|DICT|INTERRES
   128   64  127 1    
   129   65   66 2    
@<TRIPOS>SUBSTRUCTURE
     1 UNK         1 GROUP             0       ****    0 ROOT    
