@<TRIPOS>MOLECULE
3R134
127   129    1
SMALL
USER_CHARGES


@<TRIPOS>ATOM
      1 CA         37.5152  -44.6438  -54.9651 C.3       0 UNK        -0.1968 
      2 C          36.1391  -44.8511  -54.3519 C.2       0 UNK         0.4852 
      3 O          35.3756  -45.6918  -54.8317 O.2       0 UNK        -0.5359 
      4 N          35.8217  -44.1154  -53.2772 N.am      1 UNK        -0.4300 
      5 CA         34.5273  -44.1003  -52.5745 C.3       1 UNK         0.0863 
      6 C6         34.3363  -42.7903  -51.7629 C.3       11 UNK        -0.0953 
      7 S7         34.3198  -41.3146  -52.8382 S.3       11 UNK        -0.2369 
      8 C8         32.5316  -41.0147  -53.0318 C.3       11 UNK         0.0226 
      9 C9         31.8303  -42.1882  -53.7015 C.ar      11 UNK        -0.0699 
     10 C10        31.1234  -43.1170  -52.9313 C.ar      11 UNK        -0.0804 
     11 C11        30.5222  -44.2229  -53.5355 C.ar      11 UNK        -0.0871 
     12 C12        30.6236  -44.3943  -54.9176 C.ar      11 UNK        -0.1008 
     13 C13        31.2953  -43.4544  -55.7058 C.ar      11 UNK        -0.0735 
     14 C14        31.9032  -42.3560  -55.0883 C.ar      11 UNK        -0.0945 
     15 C15        31.3762  -43.6183  -57.2210 C.3       11 UNK         0.0169 
     16 S16        29.8004  -44.1288  -57.9919 S.3       11 UNK        -0.2669 
     17 C17        28.6799  -42.7764  -57.4794 C.3       11 UNK        -0.0850 
     18 CA         27.1878  -43.0468  -57.8092 C.3       10 UNK         0.0855 
     19 C          26.8873  -42.8754  -59.3289 C.2       10 UNK         0.5543 
     20 N          26.4735  -43.9076  -60.0547 N.am      10 UNK        -0.7343 
     21 O          27.0200  -41.7732  -59.8557 O.2       10 UNK        -0.5027 
     22 N          26.7226  -44.3116  -57.2174 N.am      10 UNK        -0.4495 
     23 C          25.4403  -44.6408  -57.0145 C.2       10 UNK         0.4903 
     24 O          24.5073  -43.8505  -57.1669 O.2       10 UNK        -0.4860 
     25 CA         25.1459  -46.0928  -56.5708 C.3       9 UNK         0.0227 
     26 CB         23.7419  -46.5628  -57.0046 C.3       9 UNK        -0.1964 
     27 N          26.1509  -47.0863  -56.9800 N.am      9 UNK        -0.4231 
     28 C          26.5954  -47.3292  -58.2246 C.2       9 UNK         0.5014 
     29 O          26.2460  -46.6922  -59.2194 O.2       9 UNK        -0.5270 
     30 CA         27.6163  -48.4655  -58.3884 C.3       8 UNK         0.0284 
     31 CB         29.0181  -48.0053  -57.9552 C.3       8 UNK        -0.1977 
     32 N          27.2519  -49.6818  -57.6607 N.am      8 UNK        -0.4342 
     33 C          26.2029  -50.4663  -57.9482 C.2       8 UNK         0.5039 
     34 O          25.3965  -50.2358  -58.8499 O.2       8 UNK        -0.5547 
     35 CA         26.0308  -51.7322  -57.0962 C.3       7 UNK         0.0281 
     36 CB         26.9771  -52.8434  -57.5818 C.3       7 UNK        -0.1963 
     37 N          26.2873  -51.4566  -55.6829 N.am      7 UNK        -0.4444 
     38 C          25.3413  -51.1519  -54.7850 C.2       7 UNK         0.5104 
     39 O          24.1359  -51.1342  -55.0367 O.2       7 UNK        -0.5100 
     40 CA         25.8101  -50.8089  -53.3572 C.3       6 UNK         0.0396 
     41 CB         25.7465  -52.0554  -52.4604 C.3       6 UNK        -0.1801 
     42 N          27.1581  -50.2354  -53.2904 N.am      6 UNK        -0.4747 
     43 C          27.5081  -49.0511  -53.8122 C.2       6 UNK         0.5012 
     44 O          26.7319  -48.3097  -54.4158 O.2       6 UNK        -0.5003 
     45 CA         28.9868  -48.6368  -53.6864 C.3       5 UNK         0.0782 
     46 C46        29.2407  -47.9229  -52.3363 C.3       11 UNK        -0.0868 
     47 S47        30.6465  -46.7747  -52.4727 S.3       11 UNK        -0.2515 
     48 C48        29.7302  -45.2203  -52.7111 C.3       11 UNK         0.0199 
     49 N          29.9517  -49.7241  -53.9060 N.am      5 UNK        -0.4607 
     50 C          29.9648  -50.5925  -54.9266 C.2       4 UNK         0.5031 
     51 O          29.0879  -50.6513  -55.7897 O.2       4 UNK        -0.5119 
     52 CA         31.1690  -51.5486  -54.9819 C.3       4 UNK         0.0263 
     53 CB         31.1418  -52.4726  -56.2184 C.3       4 UNK        -0.1967 
     54 N          32.4493  -50.8352  -54.8920 N.am      4 UNK        -0.4237 
     55 C          32.9213  -49.8910  -55.7195 C.2       3 UNK         0.4908 
     56 O          32.3112  -49.4572  -56.6981 O.2       3 UNK        -0.5102 
     57 CA         34.3216  -49.3439  -55.3832 C.3       3 UNK         0.0241 
     58 CB         34.9410  -48.5580  -56.5545 C.3       3 UNK        -0.1971 
     59 N          34.3170  -48.4869  -54.1954 N.am      3 UNK        -0.4139 
     60 C          34.2095  -48.9131  -52.9252 C.2       2 UNK         0.5016 
     61 O          34.0417  -50.0982  -52.6297 O.2       2 UNK        -0.5319 
     62 CA         34.3268  -47.8766  -51.7904 C.3       2 UNK         0.0286 
     63 CB         35.4248  -48.2662  -50.7822 C.3       2 UNK        -0.1963 
     64 N          34.5845  -46.5337  -52.3051 N.am      2 UNK        -0.4790 
     65 C          34.2604  -45.3732  -51.7315 C.2       1 UNK         0.5024 
     66 O          33.7696  -45.2894  -50.6044 O.2       1 UNK        -0.4888 
     67 H67        38.0872  -43.8815  -54.4365 H         1 UNK         0.0892 
     68 H68        38.0815  -45.5743  -54.9380 H         1 UNK         0.0892 
     69 H69        37.4172  -44.3344  -56.0052 H         1 UNK         0.0892 
     70 H70        36.5032  -43.4621  -52.9184 H         1 UNK         0.3107 
     71 H71        33.7567  -44.1214  -53.3466 H         1 UNK         0.0773 
     72 H72        35.1378  -42.6771  -51.0310 H         1 UNK         0.0680 
     73 H73        33.4091  -42.8065  -51.1883 H         1 UNK         0.0680 
     74 H74        32.0921  -40.8076  -52.0548 H         1 UNK         0.0650 
     75 H75        32.3870  -40.1133  -53.6289 H         1 UNK         0.0650 
     76 H76        31.0525  -42.9865  -51.8600 H         1 UNK         0.1397 
     77 H77        30.1610  -45.2541  -55.3824 H         1 UNK         0.1363 
     78 H78        32.4451  -41.6336  -55.6836 H         1 UNK         0.1355 
     79 H79        31.7029  -42.6890  -57.6904 H         1 UNK         0.0707 
     80 H80        32.1369  -44.3658  -57.4499 H         1 UNK         0.0707 
     81 H81        28.7771  -42.6294  -56.4031 H         1 UNK         0.1034 
     82 H82        29.0182  -41.8420  -57.9317 H         1 UNK         0.1034 
     83 H83        26.6195  -42.2522  -57.3216 H         1 UNK         0.0482 
     84 H84        26.3741  -44.8319  -59.6438 H         1 UNK         0.3460 
     85 H85        26.2790  -43.7738  -61.0337 H         1 UNK         0.3460 
     86 H86        27.4305  -45.0199  -57.0946 H         1 UNK         0.2989 
     87 H87        25.1664  -46.0805  -55.4802 H         1 UNK         0.0559 
     88 H88        23.6338  -46.5552  -58.0898 H         1 UNK         0.0848 
     89 H89        22.9637  -45.9184  -56.5939 H         1 UNK         0.0848 
     90 H90        23.5381  -47.5752  -56.6553 H         1 UNK         0.0848 
     91 H91        26.4996  -47.6657  -56.2200 H         1 UNK         0.3144 
     92 H92        27.6594  -48.7195  -59.4496 H         1 UNK         0.0727 
     93 H93        29.0496  -47.7263  -56.9022 H         1 UNK         0.0790 
     94 H94        29.3388  -47.1378  -58.5331 H         1 UNK         0.0790 
     95 H95        29.7605  -48.7888  -58.1115 H         1 UNK         0.0790 
     96 H96        27.8980  -49.9881  -56.9339 H         1 UNK         0.3215 
     97 H97        25.0055  -52.0866  -57.2253 H         1 UNK         0.0863 
     98 H98        26.8355  -53.7609  -57.0106 H         1 UNK         0.0808 
     99 H99        28.0250  -52.5539  -57.4958 H         1 UNK         0.0808 
    100 H100       26.7905  -53.0820  -58.6297 H         1 UNK         0.0808 
    101 H101       27.2606  -51.3845  -55.4066 H         1 UNK         0.3118 
    102 H102       25.1153  -50.0674  -52.9570 H         1 UNK         0.0546 
    103 H103       26.4382  -52.8297  -52.7944 H         1 UNK         0.0828 
    104 H104       24.7455  -52.4893  -52.4661 H         1 UNK         0.0828 
    105 H105       25.9853  -51.8134  -51.4247 H         1 UNK         0.0828 
    106 H106       27.8678  -50.7846  -52.8265 H         1 UNK         0.3005 
    107 H107       29.1507  -47.9195  -54.4930 H         1 UNK         0.1257 
    108 H108       29.4478  -48.6465  -51.5457 H         1 UNK         0.0775 
    109 H109       28.3655  -47.3647  -51.9957 H         1 UNK         0.0775 
    110 H110       28.7862  -45.4131  -53.2237 H         1 UNK         0.0840 
    111 H111       29.4694  -44.8050  -51.7364 H         1 UNK         0.0840 
    112 H112       30.7261  -49.7498  -53.2589 H         1 UNK         0.2987 
    113 H113       31.1017  -52.1815  -54.0959 H         1 UNK         0.0785 
    114 H114       30.2395  -53.0853  -56.2272 H         1 UNK         0.0798 
    115 H115       31.9939  -53.1520  -56.2254 H         1 UNK         0.0798 
    116 H116       31.1570  -51.9052  -57.1498 H         1 UNK         0.0798 
    117 H117       33.0125  -51.0310  -54.0685 H         1 UNK         0.3079 
    118 H118       34.9683  -50.2021  -55.1873 H         1 UNK         0.0794 
    119 H119       34.9777  -49.1663  -57.4592 H         1 UNK         0.0786 
    120 H120       35.9623  -48.2502  -56.3292 H         1 UNK         0.0786 
    121 H121       34.3671  -47.6595  -56.7864 H         1 UNK         0.0786 
    122 H122       34.4158  -47.4973  -54.3850 H         1 UNK         0.3032 
    123 H123       33.3632  -47.8731  -51.2759 H         1 UNK         0.1094 
    124 H124       35.4602  -47.5710  -49.9433 H         1 UNK         0.0794 
    125 H125       35.2452  -49.2590  -50.3675 H         1 UNK         0.0794 
    126 H126       36.4103  -48.2792  -51.2490 H         1 UNK         0.0794 
    127 H127       35.0012  -46.4631  -53.2298 H         1 UNK         0.3016 
@<TRIPOS>BOND
     1    1    2 1    
     2    1   67 1    
     3    1   68 1    
     4    1   69 1    
     5    2    3 2    
     6    2    4 am   BACKBONE|DICT|INTERRES
     7    4    5 1    
     8    4   70 1    
     9    5    6 1    
    10    5   65 1    
    11    5   71 1    
    12    6    7 1    
    13    6   72 1    
    14    6   73 1    
    15    7    8 1    
    16    8    9 1    
    17    8   74 1    
    18    8   75 1    
    19    9   10 ar   
    20    9   14 ar   
    21   10   11 ar   
    22   10   76 1    
    23   11   12 ar   
    24   11   48 1    
    25   12   13 ar   
    26   12   77 1    
    27   13   14 ar   
    28   13   15 1    
    29   14   78 1    
    30   15   16 1    
    31   15   79 1    
    32   15   80 1    
    33   16   17 1    
    34   17   18 1    
    35   17   81 1    
    36   17   82 1    
    37   18   19 1    
    38   18   22 1    
    39   18   83 1    
    40   19   20 am   BACKBONE|DICT|INTERRES
    41   19   21 2    
    42   20   84 1    
    43   20   85 1    
    44   22   23 am   BACKBONE|DICT|INTERRES
    45   22   86 1    
    46   23   24 2    
    47   23   25 1    
    48   25   26 1    
    49   25   27 1    
    50   25   87 1    
    51   26   88 1    
    52   26   89 1    
    53   26   90 1    
    54   27   28 am   BACKBONE|DICT|INTERRES
    55   27   91 1    
    56   28   29 2    
    57   28   30 1    
    58   30   31 1    
    59   30   32 1    
    60   30   92 1    
    61   31   93 1    
    62   31   94 1    
    63   31   95 1    
    64   32   33 am   BACKBONE|DICT|INTERRES
    65   32   96 1    
    66   33   34 2    
    67   33   35 1    
    68   35   36 1    
    69   35   37 1    
    70   35   97 1    
    71   36   98 1    
    72   36   99 1    
    73   36  100 1    
    74   37   38 am   BACKBONE|DICT|INTERRES
    75   37  101 1    
    76   38   39 2    
    77   38   40 1    
    78   40   41 1    
    79   40   42 1    
    80   40  102 1    
    81   41  103 1    
    82   41  104 1    
    83   41  105 1    
    84   42   43 am   BACKBONE|DICT|INTERRES
    85   42  106 1    
    86   43   44 2    
    87   43   45 1    
    88   45   46 1    
    89   45   49 1    
    90   45  107 1    
    91   46   47 1    
    92   46  108 1    
    93   46  109 1    
    94   47   48 1    
    95   48  110 1    
    96   48  111 1    
    97   49   50 am   BACKBONE|DICT|INTERRES
    98   49  112 1    
    99   50   51 2    
   100   50   52 1    
   101   52   53 1    
   102   52   54 1    
   103   52  113 1    
   104   53  114 1    
   105   53  115 1    
   106   53  116 1    
   107   54   55 am   BACKBONE|DICT|INTERRES
   108   54  117 1    
   109   55   56 2    
   110   55   57 1    
   111   57   58 1    
   112   57   59 1    
   113   57  118 1    
   114   58  119 1    
   115   58  120 1    
   116   58  121 1    
   117   59   60 am   BACKBONE|DICT|INTERRES
   118   59  122 1    
   119   60   61 2    
   120   60   62 1    
   121   62   63 1    
   122   62   64 1    
   123   62  123 1    
   124   63  124 1    
   125   63  125 1    
   126   63  126 1    
   127   64   65 am   BACKBONE|DICT|INTERRES
   128   64  127 1    
   129   65   66 2    
@<TRIPOS>SUBSTRUCTURE
     1 UNK         1 GROUP             0       ****    0 ROOT    
