@<TRIPOS>MOLECULE
3R134
127   129    1
SMALL
USER_CHARGES


@<TRIPOS>ATOM
      1 CA         37.1771  -43.4859  -53.5993 C.3       0 UNK        -0.1968 
      2 C          35.9762  -44.4118  -53.7196 C.2       0 UNK         0.4852 
      3 O          35.1891  -44.5102  -52.7773 O.2       0 UNK        -0.5359 
      4 N          35.8419  -45.0964  -54.8653 N.am      1 UNK        -0.4300 
      5 CA         34.7641  -46.0210  -55.2593 C.3       1 UNK         0.0863 
      6 C6         33.3509  -45.3867  -55.2473 C.3       11 UNK        -0.0953 
      7 S7         33.2015  -43.9278  -56.3419 S.3       11 UNK        -0.2369 
      8 C8         32.7712  -42.5774  -55.1919 C.3       11 UNK         0.0226 
      9 C9         31.4971  -42.8753  -54.4146 C.ar      11 UNK        -0.0699 
     10 C10        31.5871  -43.3789  -53.1179 C.ar      11 UNK        -0.0804 
     11 C11        30.4439  -43.7846  -52.4308 C.ar      11 UNK        -0.0871 
     12 C12        29.1864  -43.5963  -53.0105 C.ar      11 UNK        -0.1008 
     13 C13        29.0762  -43.0579  -54.2993 C.ar      11 UNK        -0.0735 
     14 C14        30.2378  -42.6994  -54.9951 C.ar      11 UNK        -0.0945 
     15 C15        27.7138  -42.8665  -54.9560 C.3       11 UNK         0.0169 
     16 S16        26.6685  -44.3583  -54.8617 S.3       11 UNK        -0.2669 
     17 C17        25.4851  -44.0588  -56.2235 C.3       11 UNK        -0.0850 
     18 CA         25.4258  -45.2192  -57.2638 C.3       10 UNK         0.0855 
     19 C          24.4243  -44.9354  -58.4224 C.2       10 UNK         0.5543 
     20 N          24.6697  -45.4127  -59.6365 N.am      10 UNK        -0.7343 
     21 O          23.3964  -44.2945  -58.2160 O.2       10 UNK        -0.5027 
     22 N          26.7458  -45.6973  -57.7097 N.am      10 UNK        -0.4495 
     23 C          27.7215  -44.9634  -58.2620 C.2       10 UNK         0.4903 
     24 O          27.6204  -43.7649  -58.5252 O.2       10 UNK        -0.4860 
     25 CA         29.0514  -45.6786  -58.5543 C.3       9 UNK         0.0227 
     26 CB         30.0791  -45.3412  -57.4640 C.3       9 UNK        -0.1964 
     27 N          28.8995  -47.1340  -58.6480 N.am      9 UNK        -0.4231 
     28 C          28.5545  -47.7708  -59.7770 C.2       9 UNK         0.5014 
     29 O          28.3879  -47.2009  -60.8565 O.2       9 UNK        -0.5270 
     30 CA         28.3375  -49.2951  -59.7083 C.3       8 UNK         0.0284 
     31 CB         29.6209  -50.0456  -60.1007 C.3       8 UNK        -0.1977 
     32 N          27.8521  -49.8026  -58.4207 N.am      8 UNK        -0.4342 
     33 C          26.7170  -49.4264  -57.8168 C.2       8 UNK         0.5039 
     34 O          25.9827  -48.5336  -58.2413 O.2       8 UNK        -0.5547 
     35 CA         26.3344  -50.1309  -56.5107 C.3       7 UNK         0.0281 
     36 CB         27.2566  -51.3001  -56.1061 C.3       7 UNK        -0.1963 
     37 N          26.3464  -49.1216  -55.4614 N.am      7 UNK        -0.4444 
     38 C          25.3604  -48.8813  -54.5905 C.2       7 UNK         0.5104 
     39 O          24.3032  -49.5140  -54.5642 O.2       7 UNK        -0.5100 
     40 CA         25.5812  -47.7286  -53.5869 C.3       6 UNK         0.0396 
     41 CB         24.9572  -48.0213  -52.2062 C.3       6 UNK        -0.1801 
     42 N          26.9844  -47.3093  -53.4519 N.am      6 UNK        -0.4747 
     43 C          28.0116  -48.0508  -53.0107 C.2       6 UNK         0.5012 
     44 O          27.9036  -49.2103  -52.6061 O.2       6 UNK        -0.5003 
     45 CA         29.4037  -47.3872  -53.0323 C.3       5 UNK         0.0782 
     46 C46        29.8687  -47.1894  -51.5644 C.3       11 UNK        -0.0868 
     47 S47        31.3401  -46.1387  -51.3529 S.3       11 UNK        -0.2515 
     48 C48        30.6059  -44.4881  -51.0963 C.3       11 UNK         0.0199 
     49 N          30.3429  -48.1778  -53.8472 N.am      5 UNK        -0.4607 
     50 C          30.1496  -48.5111  -55.1383 C.2       4 UNK         0.5031 
     51 O          29.1970  -48.1065  -55.8118 O.2       4 UNK        -0.5119 
     52 CA         31.1484  -49.4680  -55.8213 C.3       4 UNK         0.0263 
     53 CB         31.8721  -48.7973  -57.0001 C.3       4 UNK        -0.1967 
     54 N          32.1379  -50.0540  -54.9175 N.am      4 UNK        -0.4237 
     55 C          31.9028  -51.1034  -54.1158 C.2       3 UNK         0.4908 
     56 O          30.8276  -51.7019  -54.0765 O.2       3 UNK        -0.5102 
     57 CA         33.0513  -51.5767  -53.2024 C.3       3 UNK         0.0241 
     58 CB         33.7212  -52.8305  -53.7882 C.3       3 UNK        -0.1971 
     59 N          34.0775  -50.5604  -52.9498 N.am      3 UNK        -0.4139 
     60 C          33.8682  -49.4007  -52.3121 C.2       2 UNK         0.5016 
     61 O          32.7782  -49.0773  -51.8433 O.2       2 UNK        -0.5319 
     62 CA         35.0553  -48.4236  -52.2096 C.3       2 UNK         0.0286 
     63 CB         36.4356  -49.1029  -52.3568 C.3       2 UNK        -0.1963 
     64 N          34.9424  -47.3047  -53.1538 N.am      2 UNK        -0.4790 
     65 C          34.7774  -47.3582  -54.4835 C.2       1 UNK         0.5024 
     66 O          34.6543  -48.4117  -55.1106 O.2       1 UNK        -0.4888 
     67 H67        37.8027  -43.7907  -52.7608 H         1 UNK         0.0892 
     68 H68        37.7902  -43.4912  -54.5003 H         1 UNK         0.0892 
     69 H69        36.8439  -42.4636  -53.4224 H         1 UNK         0.0892 
     70 H70        36.5530  -44.9745  -55.5730 H         1 UNK         0.3107 
     71 H71        34.9847  -46.2826  -56.2957 H         1 UNK         0.0773 
     72 H72        32.5964  -46.1023  -55.5709 H         1 UNK         0.0680 
     73 H73        33.0790  -45.1383  -54.2262 H         1 UNK         0.0680 
     74 H74        32.6468  -41.6544  -55.7598 H         1 UNK         0.0650 
     75 H75        33.6073  -42.4092  -54.5114 H         1 UNK         0.0650 
     76 H76        32.5594  -43.5311  -52.6674 H         1 UNK         0.1397 
     77 H77        28.2963  -43.8974  -52.4753 H         1 UNK         0.1363 
     78 H78        30.1673  -42.3040  -55.9991 H         1 UNK         0.1355 
     79 H79        27.1962  -42.0348  -54.4766 H         1 UNK         0.0707 
     80 H80        27.8463  -42.5904  -56.0030 H         1 UNK         0.0707 
     81 H81        24.5009  -43.9102  -55.7759 H         1 UNK         0.1034 
     82 H82        25.7216  -43.1186  -56.7239 H         1 UNK         0.1034 
     83 H83        24.9954  -46.0759  -56.7439 H         1 UNK         0.0482 
     84 H84        25.4937  -45.9694  -59.8016 H         1 UNK         0.3460 
     85 H85        24.0159  -45.2364  -60.3827 H         1 UNK         0.3460 
     86 H86        26.8760  -46.6985  -57.6406 H         1 UNK         0.2989 
     87 H87        29.4362  -45.2941  -59.5013 H         1 UNK         0.0559 
     88 H88        30.2961  -44.2731  -57.4635 H         1 UNK         0.0848 
     89 H89        29.7198  -45.5953  -56.4661 H         1 UNK         0.0848 
     90 H90        31.0237  -45.8581  -57.6283 H         1 UNK         0.0848 
     91 H91        28.9932  -47.6580  -57.7831 H         1 UNK         0.3144 
     92 H92        27.5717  -49.5344  -60.4492 H         1 UNK         0.0727 
     93 H93        29.4395  -51.1158  -60.2024 H         1 UNK         0.0790 
     94 H94        30.4141  -49.9085  -59.3663 H         1 UNK         0.0790 
     95 H95        30.0018  -49.6932  -61.0605 H         1 UNK         0.0790 
     96 H96        28.3955  -50.5365  -57.9911 H         1 UNK         0.3215 
     97 H97        25.3253  -50.5224  -56.6559 H         1 UNK         0.0863 
     98 H98        26.8885  -51.7825  -55.2003 H         1 UNK         0.0808 
     99 H99        27.2925  -52.0682  -56.8798 H         1 UNK         0.0808 
    100 H100       28.2754  -50.9720  -55.9009 H         1 UNK         0.0808 
    101 H101       27.1787  -48.5426  -55.4213 H         1 UNK         0.3118 
    102 H102       25.0539  -46.8706  -54.0057 H         1 UNK         0.0546 
    103 H103       23.8807  -48.1760  -52.2879 H         1 UNK         0.0828 
    104 H104       25.1107  -47.1911  -51.5171 H         1 UNK         0.0828 
    105 H105       25.3783  -48.9184  -51.7519 H         1 UNK         0.0828 
    106 H106       27.1729  -46.3720  -53.7890 H         1 UNK         0.3005 
    107 H107       29.3183  -46.4080  -53.5074 H         1 UNK         0.1257 
    108 H108       30.0940  -48.1581  -51.1136 H         1 UNK         0.0775 
    109 H109       29.0675  -46.7655  -50.9554 H         1 UNK         0.0775 
    110 H110       29.6573  -44.5596  -50.5627 H         1 UNK         0.0840 
    111 H111       31.2706  -43.9014  -50.4604 H         1 UNK         0.0840 
    112 H112       31.1395  -48.5587  -53.3513 H         1 UNK         0.2987 
    113 H113       30.5513  -50.2798  -56.2404 H         1 UNK         0.0785 
    114 H114       31.1685  -48.3449  -57.6963 H         1 UNK         0.0798 
    115 H115       32.4569  -49.5238  -57.5644 H         1 UNK         0.0798 
    116 H116       32.5515  -48.0142  -56.6746 H         1 UNK         0.0798 
    117 H117       33.0538  -49.6149  -54.8973 H         1 UNK         0.3079 
    118 H118       32.6070  -51.8427  -52.2409 H         1 UNK         0.0794 
    119 H119       32.9889  -53.6211  -53.9592 H         1 UNK         0.0786 
    120 H120       34.4751  -53.2322  -53.1108 H         1 UNK         0.0786 
    121 H121       34.2035  -52.6210  -54.7439 H         1 UNK         0.0786 
    122 H122       34.9947  -50.7316  -53.3362 H         1 UNK         0.3032 
    123 H123       35.0032  -47.9928  -51.2081 H         1 UNK         0.1094 
    124 H124       37.2383  -48.3993  -52.1352 H         1 UNK         0.0794 
    125 H125       36.5425  -49.9355  -51.6599 H         1 UNK         0.0794 
    126 H126       36.6079  -49.4850  -53.3635 H         1 UNK         0.0794 
    127 H127       34.9868  -46.3710  -52.7487 H         1 UNK         0.3016 
@<TRIPOS>BOND
     1    1    2 1    
     2    1   67 1    
     3    1   68 1    
     4    1   69 1    
     5    2    3 2    
     6    2    4 am   BACKBONE|DICT|INTERRES
     7    4    5 1    
     8    4   70 1    
     9    5    6 1    
    10    5   65 1    
    11    5   71 1    
    12    6    7 1    
    13    6   72 1    
    14    6   73 1    
    15    7    8 1    
    16    8    9 1    
    17    8   74 1    
    18    8   75 1    
    19    9   10 ar   
    20    9   14 ar   
    21   10   11 ar   
    22   10   76 1    
    23   11   12 ar   
    24   11   48 1    
    25   12   13 ar   
    26   12   77 1    
    27   13   14 ar   
    28   13   15 1    
    29   14   78 1    
    30   15   16 1    
    31   15   79 1    
    32   15   80 1    
    33   16   17 1    
    34   17   18 1    
    35   17   81 1    
    36   17   82 1    
    37   18   19 1    
    38   18   22 1    
    39   18   83 1    
    40   19   20 am   BACKBONE|DICT|INTERRES
    41   19   21 2    
    42   20   84 1    
    43   20   85 1    
    44   22   23 am   BACKBONE|DICT|INTERRES
    45   22   86 1    
    46   23   24 2    
    47   23   25 1    
    48   25   26 1    
    49   25   27 1    
    50   25   87 1    
    51   26   88 1    
    52   26   89 1    
    53   26   90 1    
    54   27   28 am   BACKBONE|DICT|INTERRES
    55   27   91 1    
    56   28   29 2    
    57   28   30 1    
    58   30   31 1    
    59   30   32 1    
    60   30   92 1    
    61   31   93 1    
    62   31   94 1    
    63   31   95 1    
    64   32   33 am   BACKBONE|DICT|INTERRES
    65   32   96 1    
    66   33   34 2    
    67   33   35 1    
    68   35   36 1    
    69   35   37 1    
    70   35   97 1    
    71   36   98 1    
    72   36   99 1    
    73   36  100 1    
    74   37   38 am   BACKBONE|DICT|INTERRES
    75   37  101 1    
    76   38   39 2    
    77   38   40 1    
    78   40   41 1    
    79   40   42 1    
    80   40  102 1    
    81   41  103 1    
    82   41  104 1    
    83   41  105 1    
    84   42   43 am   BACKBONE|DICT|INTERRES
    85   42  106 1    
    86   43   44 2    
    87   43   45 1    
    88   45   46 1    
    89   45   49 1    
    90   45  107 1    
    91   46   47 1    
    92   46  108 1    
    93   46  109 1    
    94   47   48 1    
    95   48  110 1    
    96   48  111 1    
    97   49   50 am   BACKBONE|DICT|INTERRES
    98   49  112 1    
    99   50   51 2    
   100   50   52 1    
   101   52   53 1    
   102   52   54 1    
   103   52  113 1    
   104   53  114 1    
   105   53  115 1    
   106   53  116 1    
   107   54   55 am   BACKBONE|DICT|INTERRES
   108   54  117 1    
   109   55   56 2    
   110   55   57 1    
   111   57   58 1    
   112   57   59 1    
   113   57  118 1    
   114   58  119 1    
   115   58  120 1    
   116   58  121 1    
   117   59   60 am   BACKBONE|DICT|INTERRES
   118   59  122 1    
   119   60   61 2    
   120   60   62 1    
   121   62   63 1    
   122   62   64 1    
   123   62  123 1    
   124   63  124 1    
   125   63  125 1    
   126   63  126 1    
   127   64   65 am   BACKBONE|DICT|INTERRES
   128   64  127 1    
   129   65   66 2    
@<TRIPOS>SUBSTRUCTURE
     1 UNK         1 GROUP             0       ****    0 ROOT    
