@<TRIPOS>MOLECULE
3R134
127   129    1
SMALL
USER_CHARGES


@<TRIPOS>ATOM
      1 CA         36.7462  -44.4253  -49.6050 C.3       0 UNK        -0.1968 
      2 C          36.2800  -44.4260  -51.0537 C.2       0 UNK         0.4852 
      3 O          36.0745  -43.3570  -51.6304 O.2       0 UNK        -0.5359 
      4 N          36.1142  -45.6140  -51.6437 N.am      1 UNK        -0.4300 
      5 CA         35.7054  -45.8295  -53.0292 C.3       1 UNK         0.0863 
      6 C6         34.1776  -45.6377  -53.2260 C.3       11 UNK        -0.0953 
      7 S7         33.7393  -45.2648  -54.9587 S.3       11 UNK        -0.2369 
      8 C8         32.9726  -43.6211  -54.8076 C.3       11 UNK         0.0226 
      9 C9         31.4883  -43.7251  -54.4870 C.ar      11 UNK        -0.0699 
     10 C10        31.0445  -43.7723  -53.1617 C.ar      11 UNK        -0.0804 
     11 C11        29.6786  -43.8567  -52.8723 C.ar      11 UNK        -0.0871 
     12 C12        28.7546  -43.8961  -53.9214 C.ar      11 UNK        -0.1008 
     13 C13        29.1858  -43.8414  -55.2504 C.ar      11 UNK        -0.0735 
     14 C14        30.5535  -43.7571  -55.5258 C.ar      11 UNK        -0.0945 
     15 C15        28.1771  -43.8695  -56.3893 C.3       11 UNK         0.0169 
     16 S16        27.1602  -42.3625  -56.3999 S.3       11 UNK        -0.2669 
     17 C17        26.5859  -42.3021  -58.1282 C.3       11 UNK        -0.0850 
     18 CA         25.5774  -43.4415  -58.4864 C.3       10 UNK         0.0855 
     19 C          24.3677  -42.9535  -59.3471 C.2       10 UNK         0.5543 
     20 N          23.8334  -43.7594  -60.2572 N.am      10 UNK        -0.7343 
     21 O          23.8730  -41.8440  -59.1628 O.2       10 UNK        -0.5027 
     22 N          26.2444  -44.6538  -59.0037 N.am      10 UNK        -0.4495 
     23 C          26.9404  -44.7546  -60.1439 C.2       10 UNK         0.4903 
     24 O          27.2025  -43.7963  -60.8724 O.2       10 UNK        -0.4860 
     25 CA         27.3984  -46.1707  -60.5482 C.3       9 UNK         0.0227 
     26 CB         28.0616  -46.2011  -61.9387 C.3       9 UNK        -0.1964 
     27 N          28.3079  -46.7912  -59.5810 N.am      9 UNK        -0.4231 
     28 C          27.9511  -47.3247  -58.4065 C.2       9 UNK         0.5014 
     29 O          26.8141  -47.2414  -57.9338 O.2       9 UNK        -0.5270 
     30 CA         29.0600  -48.0651  -57.6359 C.3       8 UNK         0.0284 
     31 CB         29.7884  -47.1144  -56.6731 C.3       8 UNK        -0.1977 
     32 N          28.5390  -49.1973  -56.8713 N.am      8 UNK        -0.4342 
     33 C          27.9370  -50.2808  -57.3806 C.2       8 UNK         0.5039 
     34 O          27.8247  -50.5044  -58.5871 O.2       8 UNK        -0.5547 
     35 CA         27.3647  -51.2893  -56.3727 C.3       7 UNK         0.0281 
     36 CB         28.4494  -52.2862  -55.9303 C.3       7 UNK        -0.1963 
     37 N          26.8116  -50.6169  -55.1944 N.am      7 UNK        -0.4444 
     38 C          25.5349  -50.2309  -55.0633 C.2       7 UNK         0.5104 
     39 O          24.6677  -50.4399  -55.9124 O.2       7 UNK        -0.5100 
     40 CA         25.1383  -49.5155  -53.7563 C.3       6 UNK         0.0396 
     41 CB         24.4657  -50.5062  -52.7922 C.3       6 UNK        -0.1801 
     42 N          26.2699  -48.8825  -53.0739 N.am      6 UNK        -0.4747 
     43 C          26.8004  -47.6984  -53.4142 C.2       6 UNK         0.5012 
     44 O          26.3402  -46.9718  -54.2940 O.2       6 UNK        -0.5003 
     45 CA         28.0729  -47.2551  -52.6587 C.3       5 UNK         0.0782 
     46 C46        27.7095  -46.2742  -51.5186 C.3       11 UNK        -0.0868 
     47 S47        29.1873  -45.5530  -50.7268 S.3       11 UNK        -0.2515 
     48 C48        29.2048  -43.8717  -51.4257 C.3       11 UNK         0.0199 
     49 N          28.9005  -48.3725  -52.1768 N.am      5 UNK        -0.4607 
     50 C          29.4558  -49.3015  -52.9618 C.2       4 UNK         0.5031 
     51 O          29.2237  -49.3976  -54.1674 O.2       4 UNK        -0.5119 
     52 CA         30.3806  -50.3293  -52.2907 C.3       4 UNK         0.0263 
     53 CB         29.5729  -51.5625  -51.8547 C.3       4 UNK        -0.1967 
     54 N          31.4471  -50.7503  -53.2041 N.am      4 UNK        -0.4237 
     55 C          32.4023  -49.9319  -53.6638 C.2       3 UNK         0.4908 
     56 O          32.5619  -48.7759  -53.2657 O.2       3 UNK        -0.5102 
     57 CA         33.3128  -50.4877  -54.7647 C.3       3 UNK         0.0241 
     58 CB         32.5461  -50.6496  -56.0915 C.3       3 UNK        -0.1971 
     59 N          34.4215  -49.5579  -54.9571 N.am      3 UNK        -0.4139 
     60 C          35.6795  -49.8824  -55.2700 C.2       2 UNK         0.5016 
     61 O          36.0521  -51.0359  -55.4901 O.2       2 UNK        -0.5319 
     62 CA         36.7029  -48.7336  -55.3671 C.3       2 UNK         0.0286 
     63 CB         37.0750  -48.4714  -56.8362 C.3       2 UNK        -0.1963 
     64 N          36.2516  -47.4735  -54.7637 N.am      2 UNK        -0.4790 
     65 C          36.1892  -47.2309  -53.4482 C.2       1 UNK         0.5024 
     66 O          36.4989  -48.0589  -52.5863 O.2       1 UNK        -0.4888 
     67 H67        37.6938  -43.8947  -49.5160 H         1 UNK         0.0892 
     68 H68        36.0129  -43.9222  -48.9754 H         1 UNK         0.0892 
     69 H69        36.8859  -45.4358  -49.2212 H         1 UNK         0.0892 
     70 H70        36.3378  -46.4737  -51.1555 H         1 UNK         0.3107 
     71 H71        36.2440  -45.1034  -53.6428 H         1 UNK         0.0773 
     72 H72        33.8269  -44.8177  -52.6002 H         1 UNK         0.0680 
     73 H73        33.6185  -46.5089  -52.8870 H         1 UNK         0.0680 
     74 H74        33.1081  -43.0896  -55.7507 H         1 UNK         0.0650 
     75 H75        33.4914  -43.0273  -54.0534 H         1 UNK         0.0650 
     76 H76        31.7607  -43.7379  -52.3527 H         1 UNK         0.1397 
     77 H77        27.6957  -43.9542  -53.7094 H         1 UNK         0.1363 
     78 H78        30.8944  -43.7153  -56.5512 H         1 UNK         0.1355 
     79 H79        28.6858  -43.9739  -57.3489 H         1 UNK         0.0707 
     80 H80        27.5292  -44.7412  -56.2834 H         1 UNK         0.0707 
     81 H81        26.1403  -41.3139  -58.2513 H         1 UNK         0.1034 
     82 H82        27.4509  -42.2955  -58.7913 H         1 UNK         0.1034 
     83 H83        25.0994  -43.7635  -57.5606 H         1 UNK         0.0482 
     84 H84        24.2085  -44.6819  -60.4059 H         1 UNK         0.3460 
     85 H85        23.0437  -43.4407  -60.7964 H         1 UNK         0.3460 
     86 H86        26.1162  -45.5055  -58.4631 H         1 UNK         0.2989 
     87 H87        26.4980  -46.7859  -60.6076 H         1 UNK         0.0559 
     88 H88        28.9825  -45.6168  -61.9616 H         1 UNK         0.0848 
     89 H89        27.3963  -45.7895  -62.6991 H         1 UNK         0.0848 
     90 H90        28.3020  -47.2200  -62.2432 H         1 UNK         0.0848 
     91 H91        29.2738  -46.8655  -59.8670 H         1 UNK         0.3144 
     92 H92        29.7828  -48.4592  -58.3531 H         1 UNK         0.0727 
     93 H93        30.2150  -46.2637  -57.2053 H         1 UNK         0.0790 
     94 H94        30.6076  -47.6167  -56.1576 H         1 UNK         0.0790 
     95 H95        29.1119  -46.7233  -55.9126 H         1 UNK         0.0790 
     96 H96        28.6459  -49.1438  -55.8606 H         1 UNK         0.3215 
     97 H97        26.5758  -51.8528  -56.8760 H         1 UNK         0.0863 
     98 H98        29.2776  -51.7892  -55.4251 H         1 UNK         0.0808 
     99 H99        28.8635  -52.8161  -56.7892 H         1 UNK         0.0808 
    100 H100       28.0443  -53.0365  -55.2513 H         1 UNK         0.0808 
    101 H101       27.4793  -50.3304  -54.4883 H         1 UNK         0.3118 
    102 H102       24.4073  -48.7453  -54.0120 H         1 UNK         0.0546 
    103 H103       25.1447  -51.3059  -52.4937 H         1 UNK         0.0828 
    104 H104       23.5970  -50.9743  -53.2575 H         1 UNK         0.0828 
    105 H105       24.1158  -50.0063  -51.8889 H         1 UNK         0.0828 
    106 H106       26.7048  -49.4033  -52.3258 H         1 UNK         0.3005 
    107 H107       28.6804  -46.7143  -53.3880 H         1 UNK         0.1257 
    108 H108       27.1290  -46.7858  -50.7485 H         1 UNK         0.0775 
    109 H109       27.0710  -45.4686  -51.8858 H         1 UNK         0.0775 
    110 H110       28.2145  -43.4219  -51.3392 H         1 UNK         0.0840 
    111 H111       29.8666  -43.2509  -50.8197 H         1 UNK         0.0840 
    112 H112       29.1335  -48.3536  -51.1942 H         1 UNK         0.2987 
    113 H113       30.8409  -49.8729  -51.4117 H         1 UNK         0.0785 
    114 H114       28.7888  -51.2881  -51.1478 H         1 UNK         0.0798 
    115 H115       29.0909  -52.0521  -52.7022 H         1 UNK         0.0798 
    116 H116       30.2079  -52.2977  -51.3597 H         1 UNK         0.0798 
    117 H117       31.3686  -51.6772  -53.5953 H         1 UNK         0.3079 
    118 H118       33.6936  -51.4566  -54.4343 H         1 UNK         0.0794 
    119 H119       31.7290  -51.3648  -55.9940 H         1 UNK         0.0786 
    120 H120       33.1994  -51.0145  -56.8842 H         1 UNK         0.0786 
    121 H121       32.1134  -49.7048  -56.4235 H         1 UNK         0.0786 
    122 H122       34.2081  -48.5991  -54.7116 H         1 UNK         0.3032 
    123 H123       37.6015  -49.0639  -54.8407 H         1 UNK         0.1094 
    124 H124       37.4504  -49.3782  -57.3128 H         1 UNK         0.0794 
    125 H125       36.2157  -48.1312  -57.4157 H         1 UNK         0.0794 
    126 H126       37.8580  -47.7174  -56.9196 H         1 UNK         0.0794 
    127 H127       35.9516  -46.7474  -55.4008 H         1 UNK         0.3016 
@<TRIPOS>BOND
     1    1    2 1    
     2    1   67 1    
     3    1   68 1    
     4    1   69 1    
     5    2    3 2    
     6    2    4 am   BACKBONE|DICT|INTERRES
     7    4    5 1    
     8    4   70 1    
     9    5    6 1    
    10    5   65 1    
    11    5   71 1    
    12    6    7 1    
    13    6   72 1    
    14    6   73 1    
    15    7    8 1    
    16    8    9 1    
    17    8   74 1    
    18    8   75 1    
    19    9   10 ar   
    20    9   14 ar   
    21   10   11 ar   
    22   10   76 1    
    23   11   12 ar   
    24   11   48 1    
    25   12   13 ar   
    26   12   77 1    
    27   13   14 ar   
    28   13   15 1    
    29   14   78 1    
    30   15   16 1    
    31   15   79 1    
    32   15   80 1    
    33   16   17 1    
    34   17   18 1    
    35   17   81 1    
    36   17   82 1    
    37   18   19 1    
    38   18   22 1    
    39   18   83 1    
    40   19   20 am   BACKBONE|DICT|INTERRES
    41   19   21 2    
    42   20   84 1    
    43   20   85 1    
    44   22   23 am   BACKBONE|DICT|INTERRES
    45   22   86 1    
    46   23   24 2    
    47   23   25 1    
    48   25   26 1    
    49   25   27 1    
    50   25   87 1    
    51   26   88 1    
    52   26   89 1    
    53   26   90 1    
    54   27   28 am   BACKBONE|DICT|INTERRES
    55   27   91 1    
    56   28   29 2    
    57   28   30 1    
    58   30   31 1    
    59   30   32 1    
    60   30   92 1    
    61   31   93 1    
    62   31   94 1    
    63   31   95 1    
    64   32   33 am   BACKBONE|DICT|INTERRES
    65   32   96 1    
    66   33   34 2    
    67   33   35 1    
    68   35   36 1    
    69   35   37 1    
    70   35   97 1    
    71   36   98 1    
    72   36   99 1    
    73   36  100 1    
    74   37   38 am   BACKBONE|DICT|INTERRES
    75   37  101 1    
    76   38   39 2    
    77   38   40 1    
    78   40   41 1    
    79   40   42 1    
    80   40  102 1    
    81   41  103 1    
    82   41  104 1    
    83   41  105 1    
    84   42   43 am   BACKBONE|DICT|INTERRES
    85   42  106 1    
    86   43   44 2    
    87   43   45 1    
    88   45   46 1    
    89   45   49 1    
    90   45  107 1    
    91   46   47 1    
    92   46  108 1    
    93   46  109 1    
    94   47   48 1    
    95   48  110 1    
    96   48  111 1    
    97   49   50 am   BACKBONE|DICT|INTERRES
    98   49  112 1    
    99   50   51 2    
   100   50   52 1    
   101   52   53 1    
   102   52   54 1    
   103   52  113 1    
   104   53  114 1    
   105   53  115 1    
   106   53  116 1    
   107   54   55 am   BACKBONE|DICT|INTERRES
   108   54  117 1    
   109   55   56 2    
   110   55   57 1    
   111   57   58 1    
   112   57   59 1    
   113   57  118 1    
   114   58  119 1    
   115   58  120 1    
   116   58  121 1    
   117   59   60 am   BACKBONE|DICT|INTERRES
   118   59  122 1    
   119   60   61 2    
   120   60   62 1    
   121   62   63 1    
   122   62   64 1    
   123   62  123 1    
   124   63  124 1    
   125   63  125 1    
   126   63  126 1    
   127   64   65 am   BACKBONE|DICT|INTERRES
   128   64  127 1    
   129   65   66 2    
@<TRIPOS>SUBSTRUCTURE
     1 UNK         1 GROUP             0       ****    0 ROOT    
