@<TRIPOS>MOLECULE
3R134
127   129    1
SMALL
USER_CHARGES


@<TRIPOS>ATOM
      1 CA         37.2513  -48.4017  -54.8783 C.3       0 UNK        -0.1968 
      2 C          35.8709  -47.9032  -54.4817 C.2       0 UNK         0.4852 
      3 O          34.9073  -48.6687  -54.5355 O.2       0 UNK        -0.5359 
      4 N          35.7661  -46.6324  -54.0671 N.am      1 UNK        -0.4300 
      5 CA         34.5192  -45.9459  -53.6944 C.3       1 UNK         0.0863 
      6 C6         34.7620  -44.4545  -53.3679 C.3       11 UNK        -0.0953 
      7 S7         35.1961  -43.5341  -54.8827 S.3       11 UNK        -0.2369 
      8 C8         33.9146  -42.2393  -54.9503 C.3       11 UNK         0.0226 
      9 C9         32.4941  -42.7901  -55.0135 C.ar      11 UNK        -0.0699 
     10 C10        31.6462  -42.6605  -53.9088 C.ar      11 UNK        -0.0804 
     11 C11        30.3244  -43.1129  -53.9593 C.ar      11 UNK        -0.0871 
     12 C12        29.8508  -43.6860  -55.1446 C.ar      11 UNK        -0.1008 
     13 C13        30.6929  -43.8486  -56.2488 C.ar      11 UNK        -0.0735 
     14 C14        32.0141  -43.3950  -56.1795 C.ar      11 UNK        -0.0945 
     15 C15        30.1814  -44.5522  -57.4981 C.3       11 UNK         0.0169 
     16 S16        29.6753  -43.4113  -58.8264 S.3       11 UNK        -0.2669 
     17 C17        28.3167  -42.4350  -58.0831 C.3       11 UNK        -0.0850 
     18 CA         26.8964  -43.0402  -58.2510 C.3       10 UNK         0.0855 
     19 C          26.4070  -43.0673  -59.7303 C.2       10 UNK         0.5543 
     20 N          25.9343  -44.1888  -60.2633 N.am      10 UNK        -0.7343 
     21 O          26.4377  -42.0402  -60.4040 O.2       10 UNK        -0.5027 
     22 N          26.7735  -44.3209  -57.5423 N.am      10 UNK        -0.4495 
     23 C          25.6574  -44.7812  -56.9658 C.2       10 UNK         0.4903 
     24 O          24.6061  -44.1428  -56.8987 O.2       10 UNK        -0.4860 
     25 CA         25.7448  -46.1971  -56.3621 C.3       9 UNK         0.0227 
     26 CB         24.3616  -46.8254  -56.0950 C.3       9 UNK        -0.1964 
     27 N          26.5853  -47.1222  -57.1354 N.am      9 UNK        -0.4231 
     28 C          26.4350  -47.4716  -58.4230 C.2       9 UNK         0.5014 
     29 O          25.5846  -46.9904  -59.1725 O.2       9 UNK        -0.5270 
     30 CA         27.4062  -48.5232  -58.9769 C.3       8 UNK         0.0284 
     31 CB         28.6564  -47.8397  -59.5581 C.3       8 UNK        -0.1977 
     32 N          27.8098  -49.4860  -57.9471 N.am      8 UNK        -0.4342 
     33 C          27.3192  -50.7253  -57.8242 C.2       8 UNK         0.5039 
     34 O          26.4639  -51.2027  -58.5715 O.2       8 UNK        -0.5547 
     35 CA         27.8943  -51.5963  -56.6943 C.3       7 UNK         0.0281 
     36 CB         29.2936  -52.1157  -57.0646 C.3       7 UNK        -0.1963 
     37 N          27.9499  -50.9300  -55.3907 N.am      7 UNK        -0.4444 
     38 C          26.8800  -50.6706  -54.6244 C.2       7 UNK         0.5104 
     39 O          25.7175  -50.8671  -54.9784 O.2       7 UNK        -0.5100 
     40 CA         27.1525  -50.1194  -53.2150 C.3       6 UNK         0.0396 
     41 CB         27.6672  -51.2283  -52.2819 C.3       6 UNK        -0.1801 
     42 N          28.1216  -49.0251  -53.2640 N.am      6 UNK        -0.4747 
     43 C          27.7873  -47.7270  -53.3014 C.2       6 UNK         0.5012 
     44 O          26.6359  -47.3237  -53.1377 O.2       6 UNK        -0.5003 
     45 CA         28.9019  -46.7007  -53.6142 C.3       5 UNK         0.0782 
     46 C46        29.2120  -45.7684  -52.4127 C.3       11 UNK        -0.0868 
     47 S47        28.1894  -44.2558  -52.4659 S.3       11 UNK        -0.2515 
     48 C48        29.4332  -42.9398  -52.7274 C.3       11 UNK         0.0199 
     49 N          30.1099  -47.3026  -54.1936 N.am      5 UNK        -0.4607 
     50 C          30.1460  -47.8254  -55.4272 C.2       4 UNK         0.5031 
     51 O          29.1784  -47.8174  -56.1863 O.2       4 UNK        -0.5119 
     52 CA         31.4308  -48.5294  -55.8867 C.3       4 UNK         0.0263 
     53 CB         32.3487  -47.5506  -56.6323 C.3       4 UNK        -0.1967 
     54 N          32.1588  -49.2051  -54.8086 N.am      4 UNK        -0.4237 
     55 C          31.6620  -50.2146  -54.0764 C.2       3 UNK         0.4908 
     56 O          30.5054  -50.6243  -54.1833 O.2       3 UNK        -0.5102 
     57 CA         32.5964  -50.8682  -53.0503 C.3       3 UNK         0.0241 
     58 CB         33.5606  -51.8448  -53.7430 C.3       3 UNK        -0.1971 
     59 N          33.3588  -49.8545  -52.3233 N.am      3 UNK        -0.4139 
     60 C          33.0036  -49.3442  -51.1356 C.2       2 UNK         0.5016 
     61 O          32.0530  -49.7537  -50.4683 O.2       2 UNK        -0.5319 
     62 CA         33.8353  -48.1608  -50.6013 C.3       2 UNK         0.0286 
     63 CB         34.9463  -48.6630  -49.6653 C.3       2 UNK        -0.1963 
     64 N          34.4300  -47.3300  -51.6542 N.am      2 UNK        -0.4790 
     65 C          33.7290  -46.6462  -52.5711 C.2       1 UNK         0.5024 
     66 O          32.4995  -46.6082  -52.5930 O.2       1 UNK        -0.4888 
     67 H67        37.5379  -49.2465  -54.2527 H         1 UNK         0.0892 
     68 H68        37.2437  -48.7332  -55.9161 H         1 UNK         0.0892 
     69 H69        38.0110  -47.6274  -54.7742 H         1 UNK         0.0892 
     70 H70        36.5934  -46.0528  -54.0522 H         1 UNK         0.3107 
     71 H71        33.8727  -45.9864  -54.5694 H         1 UNK         0.0773 
     72 H72        33.8808  -44.0023  -52.9114 H         1 UNK         0.0680 
     73 H73        35.5668  -44.3412  -52.6396 H         1 UNK         0.0680 
     74 H74        34.0939  -41.6186  -55.8292 H         1 UNK         0.0650 
     75 H75        34.0356  -41.5821  -54.0877 H         1 UNK         0.0650 
     76 H76        32.0161  -42.1941  -53.0058 H         1 UNK         0.1397 
     77 H77        28.8231  -44.0112  -55.2098 H         1 UNK         0.1363 
     78 H78        32.6678  -43.5084  -57.0336 H         1 UNK         0.1355 
     79 H79        29.3588  -45.2213  -57.2480 H         1 UNK         0.0707 
     80 H80        30.9701  -45.1923  -57.8931 H         1 UNK         0.0707 
     81 H81        28.5211  -42.2605  -57.0277 H         1 UNK         0.1034 
     82 H82        28.3457  -41.4409  -58.5330 H         1 UNK         0.1034 
     83 H83        26.2205  -42.3384  -57.7588 H         1 UNK         0.0482 
     84 H84        25.6169  -44.1785  -61.2192 H         1 UNK         0.3460 
     85 H85        25.8655  -45.0437  -59.7232 H         1 UNK         0.3460 
     86 H86        27.5729  -44.9312  -57.6021 H         1 UNK         0.2989 
     87 H87        26.2368  -46.0684  -55.3996 H         1 UNK         0.0559 
     88 H88        23.7877  -46.9449  -57.0145 H         1 UNK         0.0848 
     89 H89        23.7719  -46.2047  -55.4194 H         1 UNK         0.0848 
     90 H90        24.4580  -47.8058  -55.6279 H         1 UNK         0.0848 
     91 H91        27.3844  -47.5126  -56.6428 H         1 UNK         0.3144 
     92 H92        26.8985  -49.0394  -59.7945 H         1 UNK         0.0727 
     93 H93        29.2185  -47.2957  -58.7992 H         1 UNK         0.0790 
     94 H94        28.3837  -47.1239  -60.3351 H         1 UNK         0.0790 
     95 H95        29.3285  -48.5683  -60.0115 H         1 UNK         0.0790 
     96 H96        28.4727  -49.1457  -57.2556 H         1 UNK         0.3215 
     97 H97        27.2392  -52.4645  -56.5912 H         1 UNK         0.0863 
     98 H98        29.6714  -52.8074  -56.3113 H         1 UNK         0.0808 
     99 H99        30.0157  -51.3059  -57.1642 H         1 UNK         0.0808 
    100 H100       29.2720  -52.6517  -58.0145 H         1 UNK         0.0808 
    101 H101       28.8758  -50.7752  -54.9961 H         1 UNK         0.3118 
    102 H102       26.2036  -49.7656  -52.8061 H         1 UNK         0.0546 
    103 H103       26.9489  -52.0467  -52.2188 H         1 UNK         0.0828 
    104 H104       27.8191  -50.8528  -51.2700 H         1 UNK         0.0828 
    105 H105       28.6116  -51.6515  -52.6247 H         1 UNK         0.0828 
    106 H106       29.0871  -49.2860  -53.4292 H         1 UNK         0.3005 
    107 H107       28.4816  -46.0869  -54.4109 H         1 UNK         0.1257 
    108 H108       30.2566  -45.4602  -52.4218 H         1 UNK         0.0775 
    109 H109       29.0675  -46.2734  -51.4557 H         1 UNK         0.0775 
    110 H110       28.9136  -41.9844  -52.8095 H         1 UNK         0.0840 
    111 H111       30.0472  -42.8780  -51.8274 H         1 UNK         0.0840 
    112 H112       30.9495  -47.2938  -53.6217 H         1 UNK         0.2987 
    113 H113       31.1403  -49.3063  -56.5955 H         1 UNK         0.0785 
    114 H114       32.4481  -46.6034  -56.1047 H         1 UNK         0.0798 
    115 H115       31.9385  -47.3251  -57.6168 H         1 UNK         0.0798 
    116 H116       33.3454  -47.9632  -56.7891 H         1 UNK         0.0798 
    117 H117       33.1388  -48.9520  -54.6882 H         1 UNK         0.3079 
    118 H118       31.9794  -51.4428  -52.3559 H         1 UNK         0.0794 
    119 H119       34.2116  -51.3393  -54.4574 H         1 UNK         0.0786 
    120 H120       33.0109  -52.6130  -54.2889 H         1 UNK         0.0786 
    121 H121       34.1943  -52.3543  -53.0170 H         1 UNK         0.0786 
    122 H122       34.1271  -49.4244  -52.8274 H         1 UNK         0.3032 
    123 H123       33.1576  -47.5280  -50.0235 H         1 UNK         0.1094 
    124 H124       35.4844  -47.8336  -49.2058 H         1 UNK         0.0794 
    125 H125       34.5313  -49.2650  -48.8555 H         1 UNK         0.0794 
    126 H126       35.6708  -49.2837  -50.1942 H         1 UNK         0.0794 
    127 H127       35.4381  -47.3186  -51.7159 H         1 UNK         0.3016 
@<TRIPOS>BOND
     1    1    2 1    
     2    1   67 1    
     3    1   68 1    
     4    1   69 1    
     5    2    3 2    
     6    2    4 am   BACKBONE|DICT|INTERRES
     7    4    5 1    
     8    4   70 1    
     9    5    6 1    
    10    5   65 1    
    11    5   71 1    
    12    6    7 1    
    13    6   72 1    
    14    6   73 1    
    15    7    8 1    
    16    8    9 1    
    17    8   74 1    
    18    8   75 1    
    19    9   10 ar   
    20    9   14 ar   
    21   10   11 ar   
    22   10   76 1    
    23   11   12 ar   
    24   11   48 1    
    25   12   13 ar   
    26   12   77 1    
    27   13   14 ar   
    28   13   15 1    
    29   14   78 1    
    30   15   16 1    
    31   15   79 1    
    32   15   80 1    
    33   16   17 1    
    34   17   18 1    
    35   17   81 1    
    36   17   82 1    
    37   18   19 1    
    38   18   22 1    
    39   18   83 1    
    40   19   20 am   BACKBONE|DICT|INTERRES
    41   19   21 2    
    42   20   84 1    
    43   20   85 1    
    44   22   23 am   BACKBONE|DICT|INTERRES
    45   22   86 1    
    46   23   24 2    
    47   23   25 1    
    48   25   26 1    
    49   25   27 1    
    50   25   87 1    
    51   26   88 1    
    52   26   89 1    
    53   26   90 1    
    54   27   28 am   BACKBONE|DICT|INTERRES
    55   27   91 1    
    56   28   29 2    
    57   28   30 1    
    58   30   31 1    
    59   30   32 1    
    60   30   92 1    
    61   31   93 1    
    62   31   94 1    
    63   31   95 1    
    64   32   33 am   BACKBONE|DICT|INTERRES
    65   32   96 1    
    66   33   34 2    
    67   33   35 1    
    68   35   36 1    
    69   35   37 1    
    70   35   97 1    
    71   36   98 1    
    72   36   99 1    
    73   36  100 1    
    74   37   38 am   BACKBONE|DICT|INTERRES
    75   37  101 1    
    76   38   39 2    
    77   38   40 1    
    78   40   41 1    
    79   40   42 1    
    80   40  102 1    
    81   41  103 1    
    82   41  104 1    
    83   41  105 1    
    84   42   43 am   BACKBONE|DICT|INTERRES
    85   42  106 1    
    86   43   44 2    
    87   43   45 1    
    88   45   46 1    
    89   45   49 1    
    90   45  107 1    
    91   46   47 1    
    92   46  108 1    
    93   46  109 1    
    94   47   48 1    
    95   48  110 1    
    96   48  111 1    
    97   49   50 am   BACKBONE|DICT|INTERRES
    98   49  112 1    
    99   50   51 2    
   100   50   52 1    
   101   52   53 1    
   102   52   54 1    
   103   52  113 1    
   104   53  114 1    
   105   53  115 1    
   106   53  116 1    
   107   54   55 am   BACKBONE|DICT|INTERRES
   108   54  117 1    
   109   55   56 2    
   110   55   57 1    
   111   57   58 1    
   112   57   59 1    
   113   57  118 1    
   114   58  119 1    
   115   58  120 1    
   116   58  121 1    
   117   59   60 am   BACKBONE|DICT|INTERRES
   118   59  122 1    
   119   60   61 2    
   120   60   62 1    
   121   62   63 1    
   122   62   64 1    
   123   62  123 1    
   124   63  124 1    
   125   63  125 1    
   126   63  126 1    
   127   64   65 am   BACKBONE|DICT|INTERRES
   128   64  127 1    
   129   65   66 2    
@<TRIPOS>SUBSTRUCTURE
     1 UNK         1 GROUP             0       ****    0 ROOT    
