@<TRIPOS>MOLECULE
3R134
127   129    1
SMALL
USER_CHARGES


@<TRIPOS>ATOM
      1 CA         34.9790  -50.9066  -57.6437 C.3       0 UNK        -0.1968 
      2 C          34.2248  -50.2046  -56.5252 C.2       0 UNK         0.4852 
      3 O          34.2656  -50.6583  -55.3795 O.2       0 UNK        -0.5359 
      4 N          33.5522  -49.0862  -56.8378 N.am      1 UNK        -0.4300 
      5 CA         32.7359  -48.3095  -55.8951 C.3       1 UNK         0.0863 
      6 C6         31.8275  -47.2652  -56.5865 C.3       11 UNK        -0.0953 
      7 S7         32.6887  -46.0958  -57.6973 S.3       11 UNK        -0.2369 
      8 C8         33.2621  -44.7557  -56.5946 C.3       11 UNK         0.0226 
      9 C9         32.2184  -44.2541  -55.6011 C.ar      11 UNK        -0.0699 
     10 C10        32.5334  -44.1969  -54.2392 C.ar      11 UNK        -0.0804 
     11 C11        31.6039  -43.7243  -53.3096 C.ar      11 UNK        -0.0871 
     12 C12        30.3460  -43.3057  -53.7519 C.ar      11 UNK        -0.1008 
     13 C13        30.0154  -43.3588  -55.1091 C.ar      11 UNK        -0.0735 
     14 C14        30.9572  -43.8262  -56.0316 C.ar      11 UNK        -0.0945 
     15 C15        28.6424  -42.8951  -55.5671 C.3       11 UNK         0.0169 
     16 S16        27.4138  -44.2246  -55.3927 S.3       11 UNK        -0.2669 
     17 C17        25.8490  -43.2753  -55.4440 C.3       11 UNK        -0.0850 
     18 CA         25.1358  -43.2933  -56.8223 C.3       10 UNK         0.0855 
     19 C          25.8184  -42.3426  -57.8521 C.2       10 UNK         0.5543 
     20 N          26.2691  -42.8081  -59.0116 N.am      10 UNK        -0.7343 
     21 O          25.9326  -41.1474  -57.5928 O.2       10 UNK        -0.5027 
     22 N          24.9292  -44.6706  -57.2826 N.am      10 UNK        -0.4495 
     23 C          24.0424  -45.0755  -58.1985 C.2       10 UNK         0.4903 
     24 O          23.1725  -44.3508  -58.6836 O.2       10 UNK        -0.4860 
     25 CA         24.1877  -46.5411  -58.6556 C.3       9 UNK         0.0227 
     26 CB         23.4843  -46.8298  -59.9988 C.3       9 UNK        -0.1964 
     27 N          25.5939  -46.9735  -58.6842 N.am      9 UNK        -0.4231 
     28 C          26.5848  -46.4507  -59.4282 C.2       9 UNK         0.5014 
     29 O          26.4041  -45.5623  -60.2622 O.2       9 UNK        -0.5270 
     30 CA         28.0281  -46.9299  -59.1679 C.3       8 UNK         0.0284 
     31 CB         28.9520  -45.7320  -58.8851 C.3       8 UNK        -0.1977 
     32 N          28.1405  -47.8773  -58.0566 N.am      8 UNK        -0.4342 
     33 C          27.8861  -49.1899  -58.1324 C.2       8 UNK         0.5039 
     34 O          27.6012  -49.7710  -59.1796 O.2       8 UNK        -0.5547 
     35 CA         27.9174  -49.9853  -56.8135 C.3       7 UNK         0.0281 
     36 CB         29.2534  -50.7332  -56.6705 C.3       7 UNK        -0.1963 
     37 N          27.6855  -49.1826  -55.6044 N.am      7 UNK        -0.4444 
     38 C          26.5658  -48.4859  -55.3333 C.2       7 UNK         0.5104 
     39 O          25.6218  -48.3969  -56.1180 O.2       7 UNK        -0.5100 
     40 CA         26.4819  -47.7409  -53.9902 C.3       6 UNK         0.0396 
     41 CB         25.6660  -48.5647  -52.9761 C.3       6 UNK        -0.1801 
     42 N          27.8177  -47.4534  -53.4767 N.am      6 UNK        -0.4747 
     43 C          28.1733  -46.6856  -52.4460 C.2       6 UNK         0.5012 
     44 O          27.3739  -46.0761  -51.7332 O.2       6 UNK        -0.5003 
     45 CA         29.6953  -46.6235  -52.1683 C.3       5 UNK         0.0782 
     46 C46        30.0499  -45.5798  -51.0784 C.3       11 UNK        -0.0868 
     47 S47        31.8443  -45.2623  -50.9990 S.3       11 UNK        -0.2515 
     48 C48        31.9695  -43.6465  -51.8326 C.3       11 UNK         0.0199 
     49 N          30.2642  -47.9459  -51.8528 N.am      5 UNK        -0.4607 
     50 C          30.4128  -48.9745  -52.6984 C.2       4 UNK         0.5031 
     51 O          30.0473  -48.9529  -53.8775 O.2       4 UNK        -0.5119 
     52 CA         31.1150  -50.2195  -52.1475 C.3       4 UNK         0.0263 
     53 CB         30.7612  -51.4845  -52.9596 C.3       4 UNK        -0.1967 
     54 N          32.5609  -49.9966  -52.1640 N.am      4 UNK        -0.4237 
     55 C          33.4532  -50.7212  -51.4721 C.2       3 UNK         0.4908 
     56 O          33.1256  -51.5946  -50.6669 O.2       3 UNK        -0.5102 
     57 CA         34.9568  -50.4703  -51.7077 C.3       3 UNK         0.0241 
     58 CB         35.6625  -51.7700  -52.1351 C.3       3 UNK        -0.1971 
     59 N          35.2070  -49.4567  -52.7329 N.am      3 UNK        -0.4139 
     60 C          35.6645  -48.2170  -52.5011 C.2       2 UNK         0.5016 
     61 O          35.9996  -47.8060  -51.3896 O.2       2 UNK        -0.5319 
     62 CA         35.7478  -47.2568  -53.7080 C.3       2 UNK         0.0286 
     63 CB         37.1896  -47.1723  -54.2333 C.3       2 UNK        -0.1963 
     64 N          34.8552  -47.6159  -54.8160 N.am      2 UNK        -0.4790 
     65 C          33.5207  -47.7011  -54.7152 C.2       1 UNK         0.5024 
     66 O          32.9137  -47.3859  -53.6955 O.2       1 UNK        -0.4888 
     67 H67        34.6068  -51.9236  -57.7639 H         1 UNK         0.0892 
     68 H68        34.8693  -50.3899  -58.5970 H         1 UNK         0.0892 
     69 H69        36.0409  -50.9582  -57.4049 H         1 UNK         0.0892 
     70 H70        33.5693  -48.7370  -57.7861 H         1 UNK         0.3107 
     71 H71        32.0681  -49.0385  -55.4343 H         1 UNK         0.0773 
     72 H72        31.0998  -47.7953  -57.2020 H         1 UNK         0.0680 
     73 H73        31.2258  -46.7258  -55.8533 H         1 UNK         0.0680 
     74 H74        33.5822  -43.9164  -57.2130 H         1 UNK         0.0650 
     75 H75        34.1558  -45.0995  -56.0729 H         1 UNK         0.0650 
     76 H76        33.5046  -44.5253  -53.8954 H         1 UNK         0.1397 
     77 H77        29.6191  -42.9374  -53.0408 H         1 UNK         0.1363 
     78 H78        30.7094  -43.8637  -57.0834 H         1 UNK         0.1355 
     79 H79        28.3408  -42.0282  -54.9775 H         1 UNK         0.0707 
     80 H80        28.6746  -42.5661  -56.6070 H         1 UNK         0.0707 
     81 H81        25.1848  -43.7163  -54.6991 H         1 UNK         0.1034 
     82 H82        26.0122  -42.2522  -55.1004 H         1 UNK         0.1034 
     83 H83        24.1435  -42.8664  -56.6651 H         1 UNK         0.0482 
     84 H84        26.6996  -42.1673  -59.6585 H         1 UNK         0.3460 
     85 H85        26.1713  -43.7834  -59.2668 H         1 UNK         0.3460 
     86 H86        25.6086  -45.3372  -56.9476 H         1 UNK         0.2989 
     87 H87        23.6996  -47.1475  -57.8912 H         1 UNK         0.0559 
     88 H88        22.4131  -46.6379  -59.9270 H         1 UNK         0.0848 
     89 H89        23.6066  -47.8715  -60.2949 H         1 UNK         0.0848 
     90 H90        23.8709  -46.2042  -60.8039 H         1 UNK         0.0848 
     91 H91        25.8329  -47.6726  -57.9873 H         1 UNK         0.3144 
     92 H92        28.3735  -47.4153  -60.0831 H         1 UNK         0.0727 
     93 H93        28.6630  -45.2010  -57.9780 H         1 UNK         0.0790 
     94 H94        28.9311  -45.0115  -59.7038 H         1 UNK         0.0790 
     95 H95        29.9861  -46.0524  -58.7742 H         1 UNK         0.0790 
     96 H96        28.3630  -47.4905  -57.1512 H         1 UNK         0.3215 
     97 H97        27.1167  -50.7257  -56.8698 H         1 UNK         0.0863 
     98 H98        29.2511  -51.3864  -55.7978 H         1 UNK         0.0808 
     99 H99        30.0931  -50.0453  -56.5706 H         1 UNK         0.0808 
    100 H100       29.4473  -51.3605  -57.5418 H         1 UNK         0.0808 
    101 H101       28.4263  -49.2302  -54.9127 H         1 UNK         0.3118 
    102 H102       25.9742  -46.7912  -54.1694 H         1 UNK         0.0546 
    103 H103       26.1692  -49.4973  -52.7187 H         1 UNK         0.0828 
    104 H104       24.6861  -48.8222  -53.3806 H         1 UNK         0.0828 
    105 H105       25.4935  -48.0112  -52.0534 H         1 UNK         0.0828 
    106 H106       28.5898  -47.9244  -53.9403 H         1 UNK         0.3005 
    107 H107       30.1561  -46.2877  -53.1014 H         1 UNK         0.1257 
    108 H108       29.7137  -45.9213  -50.0979 H         1 UNK         0.0775 
    109 H109       29.5352  -44.6342  -51.2562 H         1 UNK         0.0775 
    110 H110       31.3394  -42.9207  -51.3160 H         1 UNK         0.0840 
    111 H111       32.9923  -43.2803  -51.7325 H         1 UNK         0.0840 
    112 H112       30.6158  -48.0465  -50.9120 H         1 UNK         0.2987 
    113 H113       30.7817  -50.3627  -51.1174 H         1 UNK         0.0785 
    114 H114       29.6807  -51.6160  -53.0300 H         1 UNK         0.0798 
    115 H115       31.1645  -52.3845  -52.4955 H         1 UNK         0.0798 
    116 H116       31.1528  -51.4308  -53.9765 H         1 UNK         0.0798 
    117 H117       32.8773  -49.2221  -52.7384 H         1 UNK         0.3079 
    118 H118       35.3775  -50.1558  -50.7505 H         1 UNK         0.0794 
    119 H119       36.7326  -51.6128  -52.2715 H         1 UNK         0.0786 
    120 H120       35.2586  -52.1564  -53.0721 H         1 UNK         0.0786 
    121 H121       35.5456  -52.5500  -51.3816 H         1 UNK         0.0786 
    122 H122       34.9599  -49.7196  -53.6831 H         1 UNK         0.3032 
    123 H123       35.4507  -46.2687  -53.3495 H         1 UNK         0.1094 
    124 H124       37.5333  -48.1306  -54.6249 H         1 UNK         0.0794 
    125 H125       37.2808  -46.4307  -55.0271 H         1 UNK         0.0794 
    126 H126       37.8776  -46.8794  -53.4388 H         1 UNK         0.0794 
    127 H127       35.2884  -47.9029  -55.6818 H         1 UNK         0.3016 
@<TRIPOS>BOND
     1    1    2 1    
     2    1   67 1    
     3    1   68 1    
     4    1   69 1    
     5    2    3 2    
     6    2    4 am   BACKBONE|DICT|INTERRES
     7    4    5 1    
     8    4   70 1    
     9    5    6 1    
    10    5   65 1    
    11    5   71 1    
    12    6    7 1    
    13    6   72 1    
    14    6   73 1    
    15    7    8 1    
    16    8    9 1    
    17    8   74 1    
    18    8   75 1    
    19    9   10 ar   
    20    9   14 ar   
    21   10   11 ar   
    22   10   76 1    
    23   11   12 ar   
    24   11   48 1    
    25   12   13 ar   
    26   12   77 1    
    27   13   14 ar   
    28   13   15 1    
    29   14   78 1    
    30   15   16 1    
    31   15   79 1    
    32   15   80 1    
    33   16   17 1    
    34   17   18 1    
    35   17   81 1    
    36   17   82 1    
    37   18   19 1    
    38   18   22 1    
    39   18   83 1    
    40   19   20 am   BACKBONE|DICT|INTERRES
    41   19   21 2    
    42   20   84 1    
    43   20   85 1    
    44   22   23 am   BACKBONE|DICT|INTERRES
    45   22   86 1    
    46   23   24 2    
    47   23   25 1    
    48   25   26 1    
    49   25   27 1    
    50   25   87 1    
    51   26   88 1    
    52   26   89 1    
    53   26   90 1    
    54   27   28 am   BACKBONE|DICT|INTERRES
    55   27   91 1    
    56   28   29 2    
    57   28   30 1    
    58   30   31 1    
    59   30   32 1    
    60   30   92 1    
    61   31   93 1    
    62   31   94 1    
    63   31   95 1    
    64   32   33 am   BACKBONE|DICT|INTERRES
    65   32   96 1    
    66   33   34 2    
    67   33   35 1    
    68   35   36 1    
    69   35   37 1    
    70   35   97 1    
    71   36   98 1    
    72   36   99 1    
    73   36  100 1    
    74   37   38 am   BACKBONE|DICT|INTERRES
    75   37  101 1    
    76   38   39 2    
    77   38   40 1    
    78   40   41 1    
    79   40   42 1    
    80   40  102 1    
    81   41  103 1    
    82   41  104 1    
    83   41  105 1    
    84   42   43 am   BACKBONE|DICT|INTERRES
    85   42  106 1    
    86   43   44 2    
    87   43   45 1    
    88   45   46 1    
    89   45   49 1    
    90   45  107 1    
    91   46   47 1    
    92   46  108 1    
    93   46  109 1    
    94   47   48 1    
    95   48  110 1    
    96   48  111 1    
    97   49   50 am   BACKBONE|DICT|INTERRES
    98   49  112 1    
    99   50   51 2    
   100   50   52 1    
   101   52   53 1    
   102   52   54 1    
   103   52  113 1    
   104   53  114 1    
   105   53  115 1    
   106   53  116 1    
   107   54   55 am   BACKBONE|DICT|INTERRES
   108   54  117 1    
   109   55   56 2    
   110   55   57 1    
   111   57   58 1    
   112   57   59 1    
   113   57  118 1    
   114   58  119 1    
   115   58  120 1    
   116   58  121 1    
   117   59   60 am   BACKBONE|DICT|INTERRES
   118   59  122 1    
   119   60   61 2    
   120   60   62 1    
   121   62   63 1    
   122   62   64 1    
   123   62  123 1    
   124   63  124 1    
   125   63  125 1    
   126   63  126 1    
   127   64   65 am   BACKBONE|DICT|INTERRES
   128   64  127 1    
   129   65   66 2    
@<TRIPOS>SUBSTRUCTURE
     1 UNK         1 GROUP             0       ****    0 ROOT    
