@<TRIPOS>MOLECULE
3R134
127   129    1
SMALL
USER_CHARGES


@<TRIPOS>ATOM
      1 CA         34.3893  -49.3059  -57.8991 C.3       0 UNK        -0.1968 
      2 C          34.0452  -48.8919  -56.4770 C.2       0 UNK         0.4852 
      3 O          33.4641  -49.6834  -55.7353 O.2       0 UNK        -0.5359 
      4 N          34.4165  -47.6649  -56.0828 N.am      1 UNK        -0.4300 
      5 CA         34.0866  -47.0380  -54.7922 C.3       1 UNK         0.0863 
      6 C6         34.5020  -45.5413  -54.7359 C.3       11 UNK        -0.0953 
      7 S7         34.1819  -44.5552  -56.2464 S.3       11 UNK        -0.2369 
      8 C8         32.4380  -44.8917  -56.6546 C.3       11 UNK         0.0226 
      9 C9         31.4917  -43.8076  -56.1587 C.ar      11 UNK        -0.0699 
     10 C10        31.3020  -43.5993  -54.7898 C.ar      11 UNK        -0.0804 
     11 C11        30.3968  -42.6345  -54.3351 C.ar      11 UNK        -0.0871 
     12 C12        29.7032  -41.8563  -55.2656 C.ar      11 UNK        -0.1008 
     13 C13        29.8787  -42.0529  -56.6398 C.ar      11 UNK        -0.0735 
     14 C14        30.7758  -43.0318  -57.0766 C.ar      11 UNK        -0.0945 
     15 C15        29.1502  -41.1840  -57.6626 C.3       11 UNK         0.0169 
     16 S16        27.4170  -40.8137  -57.2251 S.3       11 UNK        -0.2669 
     17 C17        26.5509  -42.3633  -57.6558 C.3       11 UNK        -0.0850 
     18 CA         26.3424  -43.3460  -56.4640 C.3       10 UNK         0.0855 
     19 C          25.2668  -42.9001  -55.4225 C.2       10 UNK         0.5543 
     20 N          24.6446  -43.8244  -54.6993 N.am      10 UNK        -0.7343 
     21 O          24.9967  -41.7155  -55.2447 O.2       10 UNK        -0.5027 
     22 N          26.1706  -44.7341  -56.9265 N.am      10 UNK        -0.4495 
     23 C          25.1861  -45.1825  -57.7213 C.2       10 UNK         0.4903 
     24 O          24.2961  -44.4641  -58.1792 O.2       10 UNK        -0.4860 
     25 CA         25.1921  -46.6901  -58.0517 C.3       9 UNK         0.0227 
     26 CB         24.3686  -47.0361  -59.3105 C.3       9 UNK        -0.1964 
     27 N          26.5424  -47.2570  -58.1360 N.am      9 UNK        -0.4231 
     28 C          27.5305  -46.9074  -58.9757 C.2       9 UNK         0.5014 
     29 O          27.3982  -46.0949  -59.8918 O.2       9 UNK        -0.5270 
     30 CA         28.9146  -47.5414  -58.7401 C.3       8 UNK         0.0284 
     31 CB         29.9562  -46.4559  -58.4312 C.3       8 UNK        -0.1977 
     32 N          28.9105  -48.5000  -57.6331 N.am      8 UNK        -0.4342 
     33 C          28.7545  -49.8236  -57.7616 C.2       8 UNK         0.5039 
     34 O          28.6718  -50.4051  -58.8438 O.2       8 UNK        -0.5547 
     35 CA         28.6385  -50.6331  -56.4586 C.3       7 UNK         0.0281 
     36 CB         30.0135  -51.1695  -56.0341 C.3       7 UNK        -0.1963 
     37 N          28.0416  -49.8650  -55.3585 N.am      7 UNK        -0.4444 
     38 C          26.7523  -49.4903  -55.3246 C.2       7 UNK         0.5104 
     39 O          25.9449  -49.7623  -56.2122 O.2       7 UNK        -0.5100 
     40 CA         26.2782  -48.6298  -54.1393 C.3       6 UNK         0.0396 
     41 CB         25.6826  -49.5205  -53.0382 C.3       6 UNK        -0.1801 
     42 N          27.3209  -47.7816  -53.5611 N.am      6 UNK        -0.4747 
     43 C          27.9854  -46.8109  -54.2049 C.2       6 UNK         0.5012 
     44 O          27.7707  -46.4958  -55.3759 O.2       6 UNK        -0.5003 
     45 CA         29.1190  -46.1170  -53.4257 C.3       5 UNK         0.0782 
     46 C46        28.6157  -44.8060  -52.7708 C.3       11 UNK        -0.0868 
     47 S47        29.9545  -43.9371  -51.8790 S.3       11 UNK        -0.2515 
     48 C48        30.1640  -42.4036  -52.8452 C.3       11 UNK         0.0199 
     49 N          29.7670  -47.0014  -52.4463 N.am      5 UNK        -0.4607 
     50 C          30.4022  -48.1447  -52.7289 C.2       4 UNK         0.5031 
     51 O          30.4571  -48.6262  -53.8614 O.2       4 UNK        -0.5119 
     52 CA         31.0673  -48.8424  -51.5324 C.3       4 UNK         0.0263 
     53 CB         30.0255  -49.4055  -50.5418 C.3       4 UNK        -0.1967 
     54 N          32.0498  -49.8499  -51.9465 N.am      4 UNK        -0.4237 
     55 C          31.8526  -51.0881  -52.4285 C.2       3 UNK         0.4908 
     56 O          30.7509  -51.6342  -52.5023 O.2       3 UNK        -0.5102 
     57 CA         33.1054  -51.8607  -52.8957 C.3       3 UNK         0.0241 
     58 CB         32.8248  -52.7251  -54.1388 C.3       3 UNK        -0.1971 
     59 N          34.2236  -50.9602  -53.1906 N.am      3 UNK        -0.4139 
     60 C          35.2221  -50.6619  -52.3456 C.2       2 UNK         0.5016 
     61 O          35.3614  -51.1884  -51.2414 O.2       2 UNK        -0.5319 
     62 CA         36.2162  -49.5649  -52.7784 C.3       2 UNK         0.0286 
     63 CB         37.5022  -50.1953  -53.3364 C.3       2 UNK        -0.1963 
     64 N          35.6708  -48.6322  -53.7699 N.am      2 UNK        -0.4790 
     65 C          34.6392  -47.7984  -53.5656 C.2       1 UNK         0.5024 
     66 O          34.0987  -47.6513  -52.4691 O.2       1 UNK        -0.4888 
     67 H67        34.9099  -48.5161  -58.4401 H         1 UNK         0.0892 
     68 H68        35.0269  -50.1893  -57.8883 H         1 UNK         0.0892 
     69 H69        33.4788  -49.5492  -58.4462 H         1 UNK         0.0892 
     70 H70        34.9034  -47.0633  -56.7329 H         1 UNK         0.3107 
     71 H71        33.0016  -47.0947  -54.6882 H         1 UNK         0.0773 
     72 H72        34.0152  -45.0485  -53.8930 H         1 UNK         0.0680 
     73 H73        35.5738  -45.4597  -54.5439 H         1 UNK         0.0680 
     74 H74        32.1112  -45.8567  -56.2731 H         1 UNK         0.0650 
     75 H75        32.3769  -44.9690  -57.7407 H         1 UNK         0.0650 
     76 H76        31.8490  -44.1984  -54.0762 H         1 UNK         0.1397 
     77 H77        29.0216  -41.0921  -54.9184 H         1 UNK         0.1363 
     78 H78        30.9209  -43.1871  -58.1370 H         1 UNK         0.1355 
     79 H79        29.6898  -40.2398  -57.7462 H         1 UNK         0.0707 
     80 H80        29.1788  -41.6400  -58.6534 H         1 UNK         0.0707 
     81 H81        27.1159  -42.8570  -58.4481 H         1 UNK         0.1034 
     82 H82        25.5900  -42.1041  -58.1034 H         1 UNK         0.1034 
     83 H83        27.2757  -43.3683  -55.9014 H         1 UNK         0.0482 
     84 H84        24.8523  -44.8006  -54.8314 H         1 UNK         0.3460 
     85 H85        23.9529  -43.5394  -54.0242 H         1 UNK         0.3460 
     86 H86        26.8295  -45.4071  -56.5414 H         1 UNK         0.2989 
     87 H87        24.7153  -47.1833  -57.2035 H         1 UNK         0.0559 
     88 H88        24.7473  -46.5246  -60.1958 H         1 UNK         0.0848 
     89 H89        23.3251  -46.7433  -59.1887 H         1 UNK         0.0848 
     90 H90        24.3809  -48.1075  -59.5103 H         1 UNK         0.0848 
     91 H91        26.7576  -47.9515  -57.4337 H         1 UNK         0.3144 
     92 H92        29.2065  -48.0409  -59.6662 H         1 UNK         0.0727 
     93 H93        30.9464  -46.8929  -58.3039 H         1 UNK         0.0790 
     94 H94        29.7049  -45.9066  -57.5227 H         1 UNK         0.0790 
     95 H95        30.0247  -45.7306  -59.2432 H         1 UNK         0.0790 
     96 H96        28.9575  -48.1106  -56.7002 H         1 UNK         0.3215 
     97 H97        27.9906  -51.4890  -56.6610 H         1 UNK         0.0863 
     98 H98        30.7201  -50.3638  -55.8314 H         1 UNK         0.0808 
     99 H99        30.4491  -51.7913  -56.8171 H         1 UNK         0.0808 
    100 H100       29.9390  -51.7834  -55.1368 H         1 UNK         0.0808 
    101 H101       28.6688  -49.5675  -54.6183 H         1 UNK         0.3118 
    102 H102       25.4894  -47.9715  -54.5095 H         1 UNK         0.0546 
    103 H103       25.2543  -48.9245  -52.2321 H         1 UNK         0.0828 
    104 H104       26.4323  -50.1843  -52.6053 H         1 UNK         0.0828 
    105 H105       24.8823  -50.1477  -53.4339 H         1 UNK         0.0828 
    106 H106       27.5824  -47.9742  -52.6049 H         1 UNK         0.3005 
    107 H107       29.8753  -45.8625  -54.1696 H         1 UNK         0.1257 
    108 H108       27.8171  -45.0155  -52.0566 H         1 UNK         0.0775 
    109 H109       28.1825  -44.1405  -53.5202 H         1 UNK         0.0775 
    110 H110       29.2826  -41.7801  -52.6860 H         1 UNK         0.0840 
    111 H111       31.0103  -41.8470  -52.4409 H         1 UNK         0.0840 
    112 H112       29.7805  -46.6577  -51.4965 H         1 UNK         0.2987 
    113 H113       31.6473  -48.0813  -51.0077 H         1 UNK         0.0785 
    114 H114       30.5040  -49.9618  -49.7358 H         1 UNK         0.0798 
    115 H115       29.4494  -48.6035  -50.0795 H         1 UNK         0.0798 
    116 H116       29.3121  -50.0696  -51.0307 H         1 UNK         0.0798 
    117 H117       32.9972  -49.4957  -51.9843 H         1 UNK         0.3079 
    118 H118       33.3770  -52.5343  -52.0805 H         1 UNK         0.0794 
    119 H119       32.0223  -53.4400  -53.9532 H         1 UNK         0.0786 
    120 H120       33.7058  -53.2984  -54.4274 H         1 UNK         0.0786 
    121 H121       32.5305  -52.1154  -54.9929 H         1 UNK         0.0786 
    122 H122       34.1531  -50.4563  -54.0723 H         1 UNK         0.3032 
    123 H123       36.4721  -48.9912  -51.8845 H         1 UNK         0.1094 
    124 H124       37.3102  -50.7691  -54.2441 H         1 UNK         0.0794 
    125 H125       38.2490  -49.4359  -53.5689 H         1 UNK         0.0794 
    126 H126       37.9504  -50.8752  -52.6101 H         1 UNK         0.0794 
    127 H127       36.0505  -48.6895  -54.7041 H         1 UNK         0.3016 
@<TRIPOS>BOND
     1    1    2 1    
     2    1   67 1    
     3    1   68 1    
     4    1   69 1    
     5    2    3 2    
     6    2    4 am   BACKBONE|DICT|INTERRES
     7    4    5 1    
     8    4   70 1    
     9    5    6 1    
    10    5   65 1    
    11    5   71 1    
    12    6    7 1    
    13    6   72 1    
    14    6   73 1    
    15    7    8 1    
    16    8    9 1    
    17    8   74 1    
    18    8   75 1    
    19    9   10 ar   
    20    9   14 ar   
    21   10   11 ar   
    22   10   76 1    
    23   11   12 ar   
    24   11   48 1    
    25   12   13 ar   
    26   12   77 1    
    27   13   14 ar   
    28   13   15 1    
    29   14   78 1    
    30   15   16 1    
    31   15   79 1    
    32   15   80 1    
    33   16   17 1    
    34   17   18 1    
    35   17   81 1    
    36   17   82 1    
    37   18   19 1    
    38   18   22 1    
    39   18   83 1    
    40   19   20 am   BACKBONE|DICT|INTERRES
    41   19   21 2    
    42   20   84 1    
    43   20   85 1    
    44   22   23 am   BACKBONE|DICT|INTERRES
    45   22   86 1    
    46   23   24 2    
    47   23   25 1    
    48   25   26 1    
    49   25   27 1    
    50   25   87 1    
    51   26   88 1    
    52   26   89 1    
    53   26   90 1    
    54   27   28 am   BACKBONE|DICT|INTERRES
    55   27   91 1    
    56   28   29 2    
    57   28   30 1    
    58   30   31 1    
    59   30   32 1    
    60   30   92 1    
    61   31   93 1    
    62   31   94 1    
    63   31   95 1    
    64   32   33 am   BACKBONE|DICT|INTERRES
    65   32   96 1    
    66   33   34 2    
    67   33   35 1    
    68   35   36 1    
    69   35   37 1    
    70   35   97 1    
    71   36   98 1    
    72   36   99 1    
    73   36  100 1    
    74   37   38 am   BACKBONE|DICT|INTERRES
    75   37  101 1    
    76   38   39 2    
    77   38   40 1    
    78   40   41 1    
    79   40   42 1    
    80   40  102 1    
    81   41  103 1    
    82   41  104 1    
    83   41  105 1    
    84   42   43 am   BACKBONE|DICT|INTERRES
    85   42  106 1    
    86   43   44 2    
    87   43   45 1    
    88   45   46 1    
    89   45   49 1    
    90   45  107 1    
    91   46   47 1    
    92   46  108 1    
    93   46  109 1    
    94   47   48 1    
    95   48  110 1    
    96   48  111 1    
    97   49   50 am   BACKBONE|DICT|INTERRES
    98   49  112 1    
    99   50   51 2    
   100   50   52 1    
   101   52   53 1    
   102   52   54 1    
   103   52  113 1    
   104   53  114 1    
   105   53  115 1    
   106   53  116 1    
   107   54   55 am   BACKBONE|DICT|INTERRES
   108   54  117 1    
   109   55   56 2    
   110   55   57 1    
   111   57   58 1    
   112   57   59 1    
   113   57  118 1    
   114   58  119 1    
   115   58  120 1    
   116   58  121 1    
   117   59   60 am   BACKBONE|DICT|INTERRES
   118   59  122 1    
   119   60   61 2    
   120   60   62 1    
   121   62   63 1    
   122   62   64 1    
   123   62  123 1    
   124   63  124 1    
   125   63  125 1    
   126   63  126 1    
   127   64   65 am   BACKBONE|DICT|INTERRES
   128   64  127 1    
   129   65   66 2    
@<TRIPOS>SUBSTRUCTURE
     1 UNK         1 GROUP             0       ****    0 ROOT    
