@<TRIPOS>MOLECULE
3R134
127   129    1
SMALL
USER_CHARGES


@<TRIPOS>ATOM
      1 CA         29.8644  -45.5207  -50.5641 C.3       0 UNK        -0.1968 
      2 C          31.2086  -45.5220  -51.2765 C.2       0 UNK         0.4852 
      3 O          31.2745  -45.9158  -52.4387 O.2       0 UNK        -0.5359 
      4 N          32.2739  -45.0966  -50.5819 N.am      1 UNK        -0.4300 
      5 CA         33.6703  -44.9673  -51.0351 C.3       1 UNK         0.0863 
      6 C6         33.8663  -44.0528  -52.2740 C.3       11 UNK        -0.0953 
      7 S7         33.2702  -42.3508  -51.9906 S.3       11 UNK        -0.2369 
      8 C8         33.5665  -41.5819  -53.6163 C.3       11 UNK         0.0226 
      9 C9         32.6753  -42.1838  -54.6924 C.ar      11 UNK        -0.0699 
     10 C10        33.1868  -43.1397  -55.5740 C.ar      11 UNK        -0.0804 
     11 C11        32.3546  -43.7574  -56.5110 C.ar      11 UNK        -0.0871 
     12 C12        31.0076  -43.3867  -56.5839 C.ar      11 UNK        -0.1008 
     13 C13        30.4898  -42.4076  -55.7284 C.ar      11 UNK        -0.0735 
     14 C14        31.3311  -41.8102  -54.7842 C.ar      11 UNK        -0.0945 
     15 C15        29.0126  -42.0362  -55.7781 C.3       11 UNK         0.0169 
     16 S16        28.4721  -41.5363  -57.4463 S.3       11 UNK        -0.2669 
     17 C17        26.6895  -41.2308  -57.1675 C.3       11 UNK        -0.0850 
     18 CA         25.7650  -42.4006  -57.6047 C.3       10 UNK         0.0855 
     19 C          25.6680  -42.5472  -59.1534 C.2       10 UNK         0.5543 
     20 N          25.9553  -43.7023  -59.7424 N.am      10 UNK        -0.7343 
     21 O          25.3051  -41.5914  -59.8351 O.2       10 UNK        -0.5027 
     22 N          26.0990  -43.6355  -56.8831 N.am      10 UNK        -0.4495 
     23 C          25.2577  -44.6419  -56.6306 C.2       10 UNK         0.4903 
     24 O          24.0594  -44.6420  -56.9188 O.2       10 UNK        -0.4860 
     25 CA         25.8764  -45.8599  -55.9252 C.3       9 UNK         0.0227 
     26 CB         25.2279  -46.0770  -54.5479 C.3       9 UNK        -0.1964 
     27 N          25.7839  -47.0932  -56.7111 N.am      9 UNK        -0.4231 
     28 C          26.2092  -47.2594  -57.9740 C.2       9 UNK         0.5014 
     29 O          26.6671  -46.3545  -58.6762 O.2       9 UNK        -0.5270 
     30 CA         26.1640  -48.6984  -58.5099 C.3       8 UNK         0.0284 
     31 CB         26.8187  -48.8549  -59.8963 C.3       8 UNK        -0.1977 
     32 N          26.8281  -49.5794  -57.5505 N.am      8 UNK        -0.4342 
     33 C          26.4334  -50.8193  -57.2335 C.2       8 UNK         0.5039 
     34 O          25.4805  -51.3857  -57.7711 O.2       8 UNK        -0.5547 
     35 CA         27.2112  -51.5660  -56.1288 C.3       7 UNK         0.0281 
     36 CB         28.1636  -52.5992  -56.7526 C.3       7 UNK        -0.1963 
     37 N          27.9745  -50.6991  -55.2260 N.am      7 UNK        -0.4444 
     38 C          27.4547  -49.7550  -54.4288 C.2       7 UNK         0.5104 
     39 O          26.2466  -49.5524  -54.3052 O.2       7 UNK        -0.5100 
     40 CA         28.4506  -48.8449  -53.6872 C.3       6 UNK         0.0396 
     41 CB         28.7519  -49.4053  -52.2896 C.3       6 UNK        -0.1801 
     42 N          29.7120  -48.6258  -54.4041 N.am      6 UNK        -0.4747 
     43 C          29.8326  -48.1001  -55.6327 C.2       6 UNK         0.5012 
     44 O          28.8755  -47.7749  -56.3314 O.2       6 UNK        -0.5003 
     45 CA         31.2538  -47.9627  -56.2021 C.3       5 UNK         0.0782 
     46 C46        32.0053  -46.7864  -55.5424 C.3       11 UNK        -0.0868 
     47 S47        33.4956  -46.3041  -56.4750 S.3       11 UNK        -0.2515 
     48 C48        32.9000  -44.8561  -57.4153 C.3       11 UNK         0.0199 
     49 N          31.9726  -49.2290  -56.0672 N.am      5 UNK        -0.4607 
     50 C          31.7718  -50.2998  -56.8453 C.2       4 UNK         0.5031 
     51 O          31.0290  -50.3040  -57.8264 O.2       4 UNK        -0.5119 
     52 CA         32.5127  -51.5914  -56.4569 C.3       4 UNK         0.0263 
     53 CB         33.8546  -51.6841  -57.2007 C.3       4 UNK        -0.1967 
     54 N          32.7477  -51.7101  -55.0147 N.am      4 UNK        -0.4237 
     55 C          31.7836  -51.8799  -54.0979 C.2       3 UNK         0.4908 
     56 O          30.5884  -51.9921  -54.3708 O.2       3 UNK        -0.5102 
     57 CA         32.2292  -51.8729  -52.6242 C.3       3 UNK         0.0241 
     58 CB         32.7336  -53.2624  -52.2029 C.3       3 UNK        -0.1971 
     59 N          33.2537  -50.8612  -52.3296 N.am      3 UNK        -0.4139 
     60 C          33.0679  -49.5424  -52.4760 C.2       2 UNK         0.5016 
     61 O          32.0191  -49.0477  -52.8901 O.2       2 UNK        -0.5319 
     62 CA         34.2551  -48.6265  -52.1662 C.3       2 UNK         0.0286 
     63 CB         35.2400  -48.5974  -53.3506 C.3       2 UNK        -0.1963 
     64 N          33.7528  -47.2783  -51.9061 N.am      2 UNK        -0.4790 
     65 C          34.3894  -46.3212  -51.2247 C.2       1 UNK         0.5024 
     66 O          35.5094  -46.4756  -50.7350 O.2       1 UNK        -0.4888 
     67 H67        29.9351  -45.1116  -49.5565 H         1 UNK         0.0892 
     68 H68        29.1469  -44.9213  -51.1239 H         1 UNK         0.0892 
     69 H69        29.4773  -46.5365  -50.4931 H         1 UNK         0.0892 
     70 H70        32.1298  -44.8160  -49.6220 H         1 UNK         0.3107 
     71 H71        34.1843  -44.4819  -50.2035 H         1 UNK         0.0773 
     72 H72        33.3552  -44.4744  -53.1403 H         1 UNK         0.0680 
     73 H73        34.9228  -43.9925  -52.5419 H         1 UNK         0.0680 
     74 H74        34.6200  -41.6868  -53.8802 H         1 UNK         0.0650 
     75 H75        33.3741  -40.5108  -53.5411 H         1 UNK         0.0650 
     76 H76        34.2235  -43.4392  -55.5020 H         1 UNK         0.1397 
     77 H77        30.3540  -43.8690  -57.2981 H         1 UNK         0.1363 
     78 H78        30.9365  -41.0741  -54.0971 H         1 UNK         0.1355 
     79 H79        28.4285  -42.8921  -55.4396 H         1 UNK         0.0707 
     80 H80        28.7991  -41.2214  -55.0843 H         1 UNK         0.0707 
     81 H81        26.5237  -41.0124  -56.1115 H         1 UNK         0.1034 
     82 H82        26.4139  -40.3133  -57.6909 H         1 UNK         0.1034 
     83 H83        24.7565  -42.1207  -57.2940 H         1 UNK         0.0482 
     84 H84        25.8799  -43.7727  -60.7442 H         1 UNK         0.3460 
     85 H85        26.2385  -44.5158  -59.2040 H         1 UNK         0.3460 
     86 H86        27.0770  -43.7549  -56.6676 H         1 UNK         0.2989 
     87 H87        26.9400  -45.6704  -55.7649 H         1 UNK         0.0559 
     88 H88        25.2901  -45.1733  -53.9400 H         1 UNK         0.0848 
     89 H89        25.7242  -46.8719  -53.9922 H         1 UNK         0.0848 
     90 H90        24.1724  -46.3379  -54.6359 H         1 UNK         0.0848 
     91 H91        25.4403  -47.9069  -56.2201 H         1 UNK         0.3144 
     92 H92        25.1083  -48.9653  -58.5933 H         1 UNK         0.0727 
     93 H93        26.7385  -49.8798  -60.2587 H         1 UNK         0.0790 
     94 H94        27.8765  -48.5898  -59.8711 H         1 UNK         0.0790 
     95 H95        26.3354  -48.2117  -60.6328 H         1 UNK         0.0790 
     96 H96        27.6060  -49.1591  -57.0464 H         1 UNK         0.3215 
     97 H97        26.4752  -52.0994  -55.5236 H         1 UNK         0.0863 
     98 H98        28.6488  -53.2056  -55.9875 H         1 UNK         0.0808 
     99 H99        28.9435  -52.1201  -57.3456 H         1 UNK         0.0808 
    100 H100       27.6249  -53.2816  -57.4115 H         1 UNK         0.0808 
    101 H101       28.9784  -50.8415  -55.1962 H         1 UNK         0.3118 
    102 H102       27.9781  -47.8682  -53.5681 H         1 UNK         0.0546 
    103 H103       29.2303  -50.3834  -52.3457 H         1 UNK         0.0828 
    104 H104       27.8365  -49.5202  -51.7077 H         1 UNK         0.0828 
    105 H105       29.4129  -48.7426  -51.7310 H         1 UNK         0.0828 
    106 H106       30.5648  -48.8346  -53.8832 H         1 UNK         0.3005 
    107 H107       31.1433  -47.7390  -57.2661 H         1 UNK         0.1257 
    108 H108       32.3211  -47.0506  -54.5341 H         1 UNK         0.0775 
    109 H109       31.3493  -45.9244  -55.4191 H         1 UNK         0.0775 
    110 H110       33.7237  -44.4551  -58.0075 H         1 UNK         0.0840 
    111 H111       32.1424  -45.1859  -58.1278 H         1 UNK         0.0840 
    112 H112       32.5665  -49.3185  -55.2568 H         1 UNK         0.2987 
    113 H113       31.8888  -52.4328  -56.7666 H         1 UNK         0.0785 
    114 H114       33.7063  -51.6244  -58.2799 H         1 UNK         0.0798 
    115 H115       34.3576  -52.6296  -56.9970 H         1 UNK         0.0798 
    116 H116       34.5302  -50.8749  -56.9199 H         1 UNK         0.0798 
    117 H117       33.7033  -51.6337  -54.6988 H         1 UNK         0.3079 
    118 H118       31.3509  -51.6353  -52.0206 H         1 UNK         0.0794 
    119 H119       32.9559  -53.2969  -51.1361 H         1 UNK         0.0786 
    120 H120       33.6362  -53.5491  -52.7440 H         1 UNK         0.0786 
    121 H121       31.9796  -54.0263  -52.3988 H         1 UNK         0.0786 
    122 H122       34.1439  -51.1985  -51.9912 H         1 UNK         0.3032 
    123 H123       34.7577  -49.0017  -51.2719 H         1 UNK         0.1094 
    124 H124       34.7684  -48.2136  -54.2561 H         1 UNK         0.0794 
    125 H125       36.1033  -47.9679  -53.1347 H         1 UNK         0.0794 
    126 H126       35.6201  -49.5946  -53.5754 H         1 UNK         0.0794 
    127 H127       32.8110  -47.0895  -52.2502 H         1 UNK         0.3016 
@<TRIPOS>BOND
     1    1    2 1    
     2    1   67 1    
     3    1   68 1    
     4    1   69 1    
     5    2    3 2    
     6    2    4 am   BACKBONE|DICT|INTERRES
     7    4    5 1    
     8    4   70 1    
     9    5    6 1    
    10    5   65 1    
    11    5   71 1    
    12    6    7 1    
    13    6   72 1    
    14    6   73 1    
    15    7    8 1    
    16    8    9 1    
    17    8   74 1    
    18    8   75 1    
    19    9   10 ar   
    20    9   14 ar   
    21   10   11 ar   
    22   10   76 1    
    23   11   12 ar   
    24   11   48 1    
    25   12   13 ar   
    26   12   77 1    
    27   13   14 ar   
    28   13   15 1    
    29   14   78 1    
    30   15   16 1    
    31   15   79 1    
    32   15   80 1    
    33   16   17 1    
    34   17   18 1    
    35   17   81 1    
    36   17   82 1    
    37   18   19 1    
    38   18   22 1    
    39   18   83 1    
    40   19   20 am   BACKBONE|DICT|INTERRES
    41   19   21 2    
    42   20   84 1    
    43   20   85 1    
    44   22   23 am   BACKBONE|DICT|INTERRES
    45   22   86 1    
    46   23   24 2    
    47   23   25 1    
    48   25   26 1    
    49   25   27 1    
    50   25   87 1    
    51   26   88 1    
    52   26   89 1    
    53   26   90 1    
    54   27   28 am   BACKBONE|DICT|INTERRES
    55   27   91 1    
    56   28   29 2    
    57   28   30 1    
    58   30   31 1    
    59   30   32 1    
    60   30   92 1    
    61   31   93 1    
    62   31   94 1    
    63   31   95 1    
    64   32   33 am   BACKBONE|DICT|INTERRES
    65   32   96 1    
    66   33   34 2    
    67   33   35 1    
    68   35   36 1    
    69   35   37 1    
    70   35   97 1    
    71   36   98 1    
    72   36   99 1    
    73   36  100 1    
    74   37   38 am   BACKBONE|DICT|INTERRES
    75   37  101 1    
    76   38   39 2    
    77   38   40 1    
    78   40   41 1    
    79   40   42 1    
    80   40  102 1    
    81   41  103 1    
    82   41  104 1    
    83   41  105 1    
    84   42   43 am   BACKBONE|DICT|INTERRES
    85   42  106 1    
    86   43   44 2    
    87   43   45 1    
    88   45   46 1    
    89   45   49 1    
    90   45  107 1    
    91   46   47 1    
    92   46  108 1    
    93   46  109 1    
    94   47   48 1    
    95   48  110 1    
    96   48  111 1    
    97   49   50 am   BACKBONE|DICT|INTERRES
    98   49  112 1    
    99   50   51 2    
   100   50   52 1    
   101   52   53 1    
   102   52   54 1    
   103   52  113 1    
   104   53  114 1    
   105   53  115 1    
   106   53  116 1    
   107   54   55 am   BACKBONE|DICT|INTERRES
   108   54  117 1    
   109   55   56 2    
   110   55   57 1    
   111   57   58 1    
   112   57   59 1    
   113   57  118 1    
   114   58  119 1    
   115   58  120 1    
   116   58  121 1    
   117   59   60 am   BACKBONE|DICT|INTERRES
   118   59  122 1    
   119   60   61 2    
   120   60   62 1    
   121   62   63 1    
   122   62   64 1    
   123   62  123 1    
   124   63  124 1    
   125   63  125 1    
   126   63  126 1    
   127   64   65 am   BACKBONE|DICT|INTERRES
   128   64  127 1    
   129   65   66 2    
@<TRIPOS>SUBSTRUCTURE
     1 UNK         1 GROUP             0       ****    0 ROOT    
