@<TRIPOS>MOLECULE
3R134
127   129    1
SMALL
USER_CHARGES


@<TRIPOS>ATOM
      1 CA         28.5054  -44.7149  -51.1578 C.3       0 UNK        -0.1968 
      2 C          29.8811  -45.0207  -50.5819 C.2       0 UNK         0.4852 
      3 O          30.0140  -45.1901  -49.3684 O.2       0 UNK        -0.5359 
      4 N          30.9022  -45.0803  -51.4446 N.am      1 UNK        -0.4300 
      5 CA         32.2890  -45.4129  -51.0994 C.3       1 UNK         0.0863 
      6 C6         33.2657  -44.9612  -52.2155 C.3       11 UNK        -0.0953 
      7 S7         33.2445  -43.1521  -52.4296 S.3       11 UNK        -0.2369 
      8 C8         34.0192  -42.9714  -54.0685 C.3       11 UNK         0.0226 
      9 C9         33.1596  -43.5076  -55.2083 C.ar      11 UNK        -0.0699 
     10 C10        33.7228  -44.3496  -56.1711 C.ar      11 UNK        -0.0804 
     11 C11        32.9616  -44.8085  -57.2508 C.ar      11 UNK        -0.0871 
     12 C12        31.6144  -44.4448  -57.3506 C.ar      11 UNK        -0.1008 
     13 C13        31.0428  -43.5929  -56.3993 C.ar      11 UNK        -0.0735 
     14 C14        31.8211  -43.1246  -55.3368 C.ar      11 UNK        -0.0945 
     15 C15        29.6020  -43.1266  -56.5333 C.3       11 UNK         0.0169 
     16 S16        28.5237  -43.9368  -55.3134 S.3       11 UNK        -0.2669 
     17 C17        27.1544  -42.7316  -55.1891 C.3       11 UNK        -0.0850 
     18 CA         25.9291  -43.0459  -56.0889 C.3       10 UNK         0.0855 
     19 C          26.1566  -42.6794  -57.5864 C.2       10 UNK         0.5543 
     20 N          25.7987  -43.5254  -58.5453 N.am      10 UNK        -0.7343 
     21 O          26.6540  -41.5970  -57.8863 O.2       10 UNK        -0.5027 
     22 N          25.4394  -44.4124  -55.8621 N.am      10 UNK        -0.4495 
     23 C          24.1636  -44.8035  -55.9361 C.2       10 UNK         0.4903 
     24 O          23.2162  -44.0418  -56.1368 O.2       10 UNK        -0.4860 
     25 CA         23.9363  -46.3159  -55.7806 C.3       9 UNK         0.0227 
     26 CB         22.4535  -46.7287  -55.9011 C.3       9 UNK        -0.1964 
     27 N          24.7818  -47.0876  -56.7002 N.am      9 UNK        -0.4231 
     28 C          24.7462  -47.0846  -58.0445 C.2       9 UNK         0.5014 
     29 O          23.9837  -46.3759  -58.7022 O.2       9 UNK        -0.5270 
     30 CA         25.7351  -47.9964  -58.8055 C.3       8 UNK         0.0284 
     31 CB         26.7050  -47.1473  -59.6453 C.3       8 UNK        -0.1977 
     32 N          26.5167  -48.8864  -57.9432 N.am      8 UNK        -0.4342 
     33 C          26.0256  -49.9159  -57.2354 C.2       8 UNK         0.5039 
     34 O          24.8759  -50.3379  -57.3619 O.2       8 UNK        -0.5547 
     35 CA         26.9414  -50.5495  -56.1667 C.3       7 UNK         0.0281 
     36 CB         27.4008  -51.9457  -56.6148 C.3       7 UNK        -0.1963 
     37 N          28.1152  -49.7367  -55.8209 N.am      7 UNK        -0.4444 
     38 C          28.0811  -48.4940  -55.3089 C.2       7 UNK         0.5104 
     39 O          27.0380  -47.9301  -54.9743 O.2       7 UNK        -0.5100 
     40 CA         29.4085  -47.7141  -55.2323 C.3       6 UNK         0.0396 
     41 CB         29.8782  -47.5848  -53.7799 C.3       6 UNK        -0.1801 
     42 N          30.4836  -48.2828  -56.0514 N.am      6 UNK        -0.4747 
     43 C          30.4568  -48.3541  -57.3930 C.2       6 UNK         0.5012 
     44 O          29.5389  -47.8884  -58.0700 O.2       6 UNK        -0.5003 
     45 CA         31.5790  -49.1410  -58.1056 C.3       5 UNK         0.0782 
     46 C46        32.5374  -48.2128  -58.8904 C.3       11 UNK        -0.0868 
     47 S47        33.7901  -47.3854  -57.8474 S.3       11 UNK        -0.2515 
     48 C48        33.6260  -45.6417  -58.3356 C.3       11 UNK         0.0199 
     49 N          32.3054  -50.0683  -57.2317 N.am      5 UNK        -0.4607 
     50 C          31.7760  -51.1253  -56.6042 C.2       4 UNK         0.5031 
     51 O          30.6041  -51.4753  -56.7377 O.2       4 UNK        -0.5119 
     52 CA         32.6891  -51.8943  -55.6319 C.3       4 UNK         0.0263 
     53 CB         33.2882  -53.1272  -56.3270 C.3       4 UNK        -0.1967 
     54 N          33.7724  -51.0964  -55.0387 N.am      4 UNK        -0.4237 
     55 C          33.6030  -49.9947  -54.2933 C.2       3 UNK         0.4908 
     56 O          32.5102  -49.4595  -54.1001 O.2       3 UNK        -0.5102 
     57 CA         34.8748  -49.3585  -53.7081 C.3       3 UNK         0.0241 
     58 CB         35.4003  -48.2560  -54.6417 C.3       3 UNK        -0.1971 
     59 N          34.6276  -48.7793  -52.3872 N.am      3 UNK        -0.4139 
     60 C          34.3623  -49.4755  -51.2726 C.2       2 UNK         0.5016 
     61 O          34.3851  -50.7061  -51.2136 O.2       2 UNK        -0.5319 
     62 CA         34.0346  -48.6693  -49.9988 C.3       2 UNK         0.0286 
     63 CB         35.2349  -48.6715  -49.0374 C.3       2 UNK        -0.1963 
     64 N          33.6385  -47.2801  -50.2640 N.am      2 UNK        -0.4790 
     65 C          32.4614  -46.9178  -50.7942 C.2       1 UNK         0.5024 
     66 O          31.5672  -47.7230  -51.0598 O.2       1 UNK        -0.4888 
     67 H67        28.0929  -43.8204  -50.6921 H         1 UNK         0.0892 
     68 H68        28.5411  -44.5493  -52.2345 H         1 UNK         0.0892 
     69 H69        27.8260  -45.5449  -50.9659 H         1 UNK         0.0892 
     70 H70        30.7299  -44.9246  -52.4267 H         1 UNK         0.3107 
     71 H71        32.5426  -44.8743  -50.1834 H         1 UNK         0.0773 
     72 H72        33.0148  -45.4449  -53.1618 H         1 UNK         0.0680 
     73 H73        34.2943  -45.2442  -51.9863 H         1 UNK         0.0680 
     74 H74        34.2103  -41.9127  -54.2476 H         1 UNK         0.0650 
     75 H75        34.9935  -43.4623  -54.0494 H         1 UNK         0.0650 
     76 H76        34.7644  -44.6314  -56.0968 H         1 UNK         0.1397 
     77 H77        31.0209  -44.7986  -58.1828 H         1 UNK         0.1363 
     78 H78        31.3822  -42.4553  -54.6094 H         1 UNK         0.1355 
     79 H79        29.5716  -42.0442  -56.4014 H         1 UNK         0.0707 
     80 H80        29.2200  -43.3253  -57.5359 H         1 UNK         0.0707 
     81 H81        26.8293  -42.7311  -54.1477 H         1 UNK         0.1034 
     82 H82        27.5219  -41.7190  -55.3641 H         1 UNK         0.1034 
     83 H83        25.1416  -42.3623  -55.7661 H         1 UNK         0.0482 
     84 H84        25.3293  -44.3895  -58.3210 H         1 UNK         0.3460 
     85 H85        25.9457  -43.2663  -59.5077 H         1 UNK         0.3460 
     86 H86        26.1564  -45.1075  -55.7081 H         1 UNK         0.2989 
     87 H87        24.2665  -46.5755  -54.7735 H         1 UNK         0.0559 
     88 H88        22.0317  -46.4618  -56.8705 H         1 UNK         0.0848 
     89 H89        21.8495  -46.2342  -55.1394 H         1 UNK         0.0848 
     90 H90        22.3292  -47.8031  -55.7662 H         1 UNK         0.0848 
     91 H91        25.4998  -47.6448  -56.2469 H         1 UNK         0.3144 
     92 H92        25.1454  -48.6169  -59.4831 H         1 UNK         0.0727 
     93 H93        26.1652  -46.5217  -60.3575 H         1 UNK         0.0790 
     94 H94        27.3878  -47.7736  -60.2200 H         1 UNK         0.0790 
     95 H95        27.3053  -46.4847  -59.0199 H         1 UNK         0.0790 
     96 H96        27.4866  -48.6258  -57.8025 H         1 UNK         0.3215 
     97 H97        26.3441  -50.6602  -55.2593 H         1 UNK         0.0863 
     98 H98        27.9995  -52.4343  -55.8458 H         1 UNK         0.0808 
     99 H99        27.9985  -51.8992  -57.5261 H         1 UNK         0.0808 
    100 H100       26.5463  -52.5924  -56.8185 H         1 UNK         0.0808 
    101 H101       29.0177  -50.1287  -56.0670 H         1 UNK         0.3118 
    102 H102       29.2128  -46.7120  -55.6141 H         1 UNK         0.0546 
    103 H103       30.7974  -47.0033  -53.7138 H         1 UNK         0.0828 
    104 H104       30.0676  -48.5593  -53.3285 H         1 UNK         0.0828 
    105 H105       29.1278  -47.0830  -53.1682 H         1 UNK         0.0828 
    106 H106       31.2614  -48.7006  -55.5486 H         1 UNK         0.3005 
    107 H107       31.0615  -49.7590  -58.8433 H         1 UNK         0.1257 
    108 H108       33.0799  -48.8052  -59.6287 H         1 UNK         0.0775 
    109 H109       31.9714  -47.4823  -59.4710 H         1 UNK         0.0775 
    110 H110       34.6246  -45.2462  -58.5280 H         1 UNK         0.0840 
    111 H111       33.0899  -45.5448  -59.2802 H         1 UNK         0.0840 
    112 H112       33.2690  -49.8293  -57.0481 H         1 UNK         0.2987 
    113 H113       32.0569  -52.2393  -54.8109 H         1 UNK         0.0785 
    114 H114       33.9607  -52.8465  -57.1386 H         1 UNK         0.0798 
    115 H115       32.5041  -53.7533  -56.7557 H         1 UNK         0.0798 
    116 H116       33.8462  -53.7480  -55.6257 H         1 UNK         0.0798 
    117 H117       34.7092  -51.4527  -55.1655 H         1 UNK         0.3079 
    118 H118       35.6423  -50.1282  -53.6025 H         1 UNK         0.0794 
    119 H119       34.6647  -47.4623  -54.7835 H         1 UNK         0.0786 
    120 H120       35.6389  -48.6581  -55.6271 H         1 UNK         0.0786 
    121 H121       36.3116  -47.8031  -54.2507 H         1 UNK         0.0786 
    122 H122       34.5577  -47.7753  -52.3402 H         1 UNK         0.3032 
    123 H123       33.2011  -49.1761  -49.5065 H         1 UNK         0.1094 
    124 H124       34.9931  -48.1733  -48.0983 H         1 UNK         0.0794 
    125 H125       35.5363  -49.6909  -48.7916 H         1 UNK         0.0794 
    126 H126       36.1020  -48.1718  -49.4712 H         1 UNK         0.0794 
    127 H127       34.3218  -46.5667  -50.0504 H         1 UNK         0.3016 
@<TRIPOS>BOND
     1    1    2 1    
     2    1   67 1    
     3    1   68 1    
     4    1   69 1    
     5    2    3 2    
     6    2    4 am   BACKBONE|DICT|INTERRES
     7    4    5 1    
     8    4   70 1    
     9    5    6 1    
    10    5   65 1    
    11    5   71 1    
    12    6    7 1    
    13    6   72 1    
    14    6   73 1    
    15    7    8 1    
    16    8    9 1    
    17    8   74 1    
    18    8   75 1    
    19    9   10 ar   
    20    9   14 ar   
    21   10   11 ar   
    22   10   76 1    
    23   11   12 ar   
    24   11   48 1    
    25   12   13 ar   
    26   12   77 1    
    27   13   14 ar   
    28   13   15 1    
    29   14   78 1    
    30   15   16 1    
    31   15   79 1    
    32   15   80 1    
    33   16   17 1    
    34   17   18 1    
    35   17   81 1    
    36   17   82 1    
    37   18   19 1    
    38   18   22 1    
    39   18   83 1    
    40   19   20 am   BACKBONE|DICT|INTERRES
    41   19   21 2    
    42   20   84 1    
    43   20   85 1    
    44   22   23 am   BACKBONE|DICT|INTERRES
    45   22   86 1    
    46   23   24 2    
    47   23   25 1    
    48   25   26 1    
    49   25   27 1    
    50   25   87 1    
    51   26   88 1    
    52   26   89 1    
    53   26   90 1    
    54   27   28 am   BACKBONE|DICT|INTERRES
    55   27   91 1    
    56   28   29 2    
    57   28   30 1    
    58   30   31 1    
    59   30   32 1    
    60   30   92 1    
    61   31   93 1    
    62   31   94 1    
    63   31   95 1    
    64   32   33 am   BACKBONE|DICT|INTERRES
    65   32   96 1    
    66   33   34 2    
    67   33   35 1    
    68   35   36 1    
    69   35   37 1    
    70   35   97 1    
    71   36   98 1    
    72   36   99 1    
    73   36  100 1    
    74   37   38 am   BACKBONE|DICT|INTERRES
    75   37  101 1    
    76   38   39 2    
    77   38   40 1    
    78   40   41 1    
    79   40   42 1    
    80   40  102 1    
    81   41  103 1    
    82   41  104 1    
    83   41  105 1    
    84   42   43 am   BACKBONE|DICT|INTERRES
    85   42  106 1    
    86   43   44 2    
    87   43   45 1    
    88   45   46 1    
    89   45   49 1    
    90   45  107 1    
    91   46   47 1    
    92   46  108 1    
    93   46  109 1    
    94   47   48 1    
    95   48  110 1    
    96   48  111 1    
    97   49   50 am   BACKBONE|DICT|INTERRES
    98   49  112 1    
    99   50   51 2    
   100   50   52 1    
   101   52   53 1    
   102   52   54 1    
   103   52  113 1    
   104   53  114 1    
   105   53  115 1    
   106   53  116 1    
   107   54   55 am   BACKBONE|DICT|INTERRES
   108   54  117 1    
   109   55   56 2    
   110   55   57 1    
   111   57   58 1    
   112   57   59 1    
   113   57  118 1    
   114   58  119 1    
   115   58  120 1    
   116   58  121 1    
   117   59   60 am   BACKBONE|DICT|INTERRES
   118   59  122 1    
   119   60   61 2    
   120   60   62 1    
   121   62   63 1    
   122   62   64 1    
   123   62  123 1    
   124   63  124 1    
   125   63  125 1    
   126   63  126 1    
   127   64   65 am   BACKBONE|DICT|INTERRES
   128   64  127 1    
   129   65   66 2    
@<TRIPOS>SUBSTRUCTURE
     1 UNK         1 GROUP             0       ****    0 ROOT    
