@<TRIPOS>MOLECULE
3R134
127   129    1
SMALL
USER_CHARGES


@<TRIPOS>ATOM
      1 CA         28.6417  -44.9120  -51.0402 C.3       0 UNK        -0.1968 
      2 C          30.0015  -44.9757  -51.7197 C.2       0 UNK         0.4852 
      3 O          30.0746  -45.3558  -52.8870 O.2       0 UNK        -0.5359 
      4 N          31.0674  -44.6029  -50.9955 N.am      1 UNK        -0.4300 
      5 CA         32.4713  -44.6832  -51.4170 C.3       1 UNK         0.0863 
      6 C6         32.7595  -43.8802  -52.7172 C.3       11 UNK        -0.0953 
      7 S7         34.5042  -43.3761  -52.9009 S.3       11 UNK        -0.2369 
      8 C8         34.3589  -41.9895  -54.0782 C.3       11 UNK         0.0226 
      9 C9         33.4956  -42.3477  -55.2805 C.ar      11 UNK        -0.0699 
     10 C10        33.9073  -43.3447  -56.1693 C.ar      11 UNK        -0.0804 
     11 C11        33.0763  -43.7408  -57.2204 C.ar      11 UNK        -0.0871 
     12 C12        31.8558  -43.0900  -57.4161 C.ar      11 UNK        -0.1008 
     13 C13        31.4268  -42.0977  -56.5296 C.ar      11 UNK        -0.0735 
     14 C14        32.2565  -41.7257  -55.4676 C.ar      11 UNK        -0.0945 
     15 C15        30.0606  -41.4407  -56.6991 C.3       11 UNK         0.0169 
     16 S16        28.7200  -42.6448  -56.9898 S.3       11 UNK        -0.2669 
     17 C17        28.7765  -43.6555  -55.4638 C.3       11 UNK        -0.0850 
     18 CA         27.3817  -44.1629  -55.0131 C.3       10 UNK         0.0855 
     19 C          26.5334  -43.0191  -54.3799 C.2       10 UNK         0.5543 
     20 N          25.4033  -42.6272  -54.9561 N.am      10 UNK        -0.7343 
     21 O          26.9073  -42.4814  -53.3409 O.2       10 UNK        -0.5027 
     22 N          26.7291  -44.9262  -56.0901 N.am      10 UNK        -0.4495 
     23 C          25.6627  -45.7230  -55.9567 C.2       10 UNK         0.4903 
     24 O          25.1090  -45.9650  -54.8849 O.2       10 UNK        -0.4860 
     25 CA         25.1142  -46.3324  -57.2522 C.3       9 UNK         0.0227 
     26 CB         24.8278  -45.2453  -58.3134 C.3       9 UNK        -0.1964 
     27 N          26.0350  -47.3521  -57.7571 N.am      9 UNK        -0.4231 
     28 C          25.7520  -48.2350  -58.7254 C.2       9 UNK         0.5014 
     29 O          24.6853  -48.2628  -59.3416 O.2       9 UNK        -0.5270 
     30 CA         26.8283  -49.2842  -59.0550 C.3       8 UNK         0.0284 
     31 CB         28.0222  -48.6561  -59.7939 C.3       8 UNK        -0.1977 
     32 N          27.2876  -49.9984  -57.8625 N.am      8 UNK        -0.4342 
     33 C          26.5413  -50.8731  -57.1714 C.2       8 UNK         0.5039 
     34 O          25.4153  -51.2365  -57.5144 O.2       8 UNK        -0.5547 
     35 CA         27.1412  -51.4356  -55.8714 C.3       7 UNK         0.0281 
     36 CB         28.0090  -52.6703  -56.1624 C.3       7 UNK        -0.1963 
     37 N          27.9190  -50.4402  -55.1302 N.am      7 UNK        -0.4444 
     38 C          27.3945  -49.3507  -54.5493 C.2       7 UNK         0.5104 
     39 O          26.1868  -49.1218  -54.4926 O.2       7 UNK        -0.5100 
     40 CA         28.3821  -48.3328  -53.9542 C.3       6 UNK         0.0396 
     41 CB         28.7761  -48.7355  -52.5245 C.3       6 UNK        -0.1801 
     42 N          29.5907  -48.1725  -54.7642 N.am      6 UNK        -0.4747 
     43 C          29.6287  -47.7094  -56.0215 C.2       6 UNK         0.5012 
     44 O          28.6364  -47.3316  -56.6431 O.2       6 UNK        -0.5003 
     45 CA         30.9969  -47.7377  -56.7276 C.3       5 UNK         0.0782 
     46 C46        31.8563  -46.5191  -56.3231 C.3       11 UNK        -0.0868 
     47 S47        33.4891  -46.4871  -57.1503 S.3       11 UNK        -0.2515 
     48 C48        33.4532  -44.9259  -58.0972 C.3       11 UNK         0.0199 
     49 N          31.6771  -49.0096  -56.4804 N.am      5 UNK        -0.4607 
     50 C          31.2994  -50.1861  -56.9929 C.2       4 UNK         0.5031 
     51 O          30.3416  -50.3237  -57.7538 O.2       4 UNK        -0.5119 
     52 CA         32.1119  -51.4180  -56.5592 C.3       4 UNK         0.0263 
     53 CB         33.3524  -51.5856  -57.4508 C.3       4 UNK        -0.1967 
     54 N          32.5219  -51.3609  -55.1524 N.am      4 UNK        -0.4237 
     55 C          31.6696  -51.4308  -54.1200 C.2       3 UNK         0.4908 
     56 O          30.4555  -51.5861  -54.2457 O.2       3 UNK        -0.5102 
     57 CA         32.2618  -51.2584  -52.7102 C.3       3 UNK         0.0241 
     58 CB         32.8483  -52.5864  -52.2048 C.3       3 UNK        -0.1971 
     59 N          33.2698  -50.1957  -52.5930 N.am      3 UNK        -0.4139 
     60 C          33.0751  -48.9123  -52.9278 C.2       2 UNK         0.5016 
     61 O          32.0597  -48.5003  -53.4885 O.2       2 UNK        -0.5319 
     62 CA         34.2196  -47.9315  -52.6203 C.3       2 UNK         0.0286 
     63 CB         35.2486  -47.9352  -53.7620 C.3       2 UNK        -0.1963 
     64 N          33.7320  -46.5618  -52.4286 N.am      2 UNK        -0.4790 
     65 C          32.9434  -46.1575  -51.4228 C.2       1 UNK         0.5024 
     66 O          32.6135  -46.8931  -50.4881 O.2       1 UNK        -0.4888 
     67 H67        28.7270  -44.7061  -49.9735 H         1 UNK         0.0892 
     68 H68        28.0348  -44.1281  -51.4912 H         1 UNK         0.0892 
     69 H69        28.1177  -45.8598  -51.1611 H         1 UNK         0.0892 
     70 H70        30.9305  -44.3280  -50.0329 H         1 UNK         0.3107 
     71 H71        33.0301  -44.2060  -50.6105 H         1 UNK         0.0773 
     72 H72        32.1621  -42.9671  -52.7105 H         1 UNK         0.0680 
     73 H73        32.4447  -44.4306  -53.6060 H         1 UNK         0.0680 
     74 H74        35.3553  -41.7045  -54.4185 H         1 UNK         0.0650 
     75 H75        33.9522  -41.1240  -53.5529 H         1 UNK         0.0650 
     76 H76        34.8470  -43.8548  -56.0062 H         1 UNK         0.1397 
     77 H77        31.2102  -43.3941  -58.2288 H         1 UNK         0.1363 
     78 H78        31.9274  -40.9674  -54.7704 H         1 UNK         0.1355 
     79 H79        29.8057  -40.8405  -55.8242 H         1 UNK         0.0707 
     80 H80        30.1053  -40.7532  -57.5446 H         1 UNK         0.0707 
     81 H81        29.4274  -44.5108  -55.6459 H         1 UNK         0.1034 
     82 H82        29.2613  -43.0968  -54.6604 H         1 UNK         0.1034 
     83 H83        27.5532  -44.8721  -54.2013 H         1 UNK         0.0482 
     84 H84        24.8631  -41.8884  -54.5347 H         1 UNK         0.3460 
     85 H85        25.0937  -43.0576  -55.8115 H         1 UNK         0.3460 
     86 H86        27.1175  -44.7823  -57.0106 H         1 UNK         0.2989 
     87 H87        24.1716  -46.8241  -57.0027 H         1 UNK         0.0559 
     88 H88        24.2444  -44.4268  -57.8899 H         1 UNK         0.0848 
     89 H89        24.2496  -45.6430  -59.1471 H         1 UNK         0.0848 
     90 H90        25.7441  -44.8193  -58.7233 H         1 UNK         0.0848 
     91 H91        26.9437  -47.4024  -57.2936 H         1 UNK         0.3144 
     92 H92        26.3779  -50.0186  -59.7264 H         1 UNK         0.0727 
     93 H93        28.7555  -49.4126  -60.0743 H         1 UNK         0.0790 
     94 H94        28.5328  -47.9061  -59.1911 H         1 UNK         0.0790 
     95 H95        27.6950  -48.1658  -60.7117 H         1 UNK         0.0790 
     96 H96        28.2285  -49.8011  -57.5412 H         1 UNK         0.3215 
     97 H97        26.3108  -51.7492  -55.2350 H         1 UNK         0.0863 
     98 H98        28.3681  -53.1284  -55.2407 H         1 UNK         0.0808 
     99 H99        28.8772  -52.4206  -56.7724 H         1 UNK         0.0808 
    100 H100       27.4395  -53.4293  -56.7003 H         1 UNK         0.0808 
    101 H101       28.9175  -50.6068  -55.0428 H         1 UNK         0.3118 
    102 H102       27.8837  -47.3621  -53.9132 H         1 UNK         0.0546 
    103 H103       29.2593  -49.7125  -52.5003 H         1 UNK         0.0828 
    104 H104       27.8995  -48.7860  -51.8777 H         1 UNK         0.0828 
    105 H105       29.4663  -48.0151  -52.0854 H         1 UNK         0.0828 
    106 H106       30.4766  -48.4013  -54.3116 H         1 UNK         0.3005 
    107 H107       30.8044  -47.6685  -57.8008 H         1 UNK         0.1257 
    108 H108       32.0261  -46.5010  -55.2448 H         1 UNK         0.0775 
    109 H109       31.3089  -45.6062  -56.5505 H         1 UNK         0.0775 
    110 H110       34.4356  -44.7526  -58.5386 H         1 UNK         0.0840 
    111 H111       32.7561  -45.0339  -58.9297 H         1 UNK         0.0840 
    112 H112       32.4334  -48.9824  -55.8125 H         1 UNK         0.2987 
    113 H113       31.4758  -52.2961  -56.6905 H         1 UNK         0.0785 
    114 H114       33.0691  -51.6518  -58.5023 H         1 UNK         0.0798 
    115 H115       33.8972  -52.4976  -57.2059 H         1 UNK         0.0798 
    116 H116       34.0403  -50.7448  -57.3514 H         1 UNK         0.0798 
    117 H117       33.5044  -51.2306  -54.9606 H         1 UNK         0.3079 
    118 H118       31.4360  -50.9839  -52.0506 H         1 UNK         0.0794 
    119 H119       33.1542  -52.5140  -51.1609 H         1 UNK         0.0786 
    120 H120       33.7160  -52.8955  -52.7890 H         1 UNK         0.0786 
    121 H121       32.1106  -53.3879  -52.2678 H         1 UNK         0.0786 
    122 H122       34.1436  -50.4546  -52.1575 H         1 UNK         0.3032 
    123 H123       34.7093  -48.2474  -51.6965 H         1 UNK         0.1094 
    124 H124       34.8023  -47.6227  -54.7064 H         1 UNK         0.0794 
    125 H125       36.0815  -47.2651  -53.5482 H         1 UNK         0.0794 
    126 H126       35.6674  -48.9310  -53.9133 H         1 UNK         0.0794 
    127 H127       33.9542  -45.8922  -53.1519 H         1 UNK         0.3016 
@<TRIPOS>BOND
     1    1    2 1    
     2    1   67 1    
     3    1   68 1    
     4    1   69 1    
     5    2    3 2    
     6    2    4 am   BACKBONE|DICT|INTERRES
     7    4    5 1    
     8    4   70 1    
     9    5    6 1    
    10    5   65 1    
    11    5   71 1    
    12    6    7 1    
    13    6   72 1    
    14    6   73 1    
    15    7    8 1    
    16    8    9 1    
    17    8   74 1    
    18    8   75 1    
    19    9   10 ar   
    20    9   14 ar   
    21   10   11 ar   
    22   10   76 1    
    23   11   12 ar   
    24   11   48 1    
    25   12   13 ar   
    26   12   77 1    
    27   13   14 ar   
    28   13   15 1    
    29   14   78 1    
    30   15   16 1    
    31   15   79 1    
    32   15   80 1    
    33   16   17 1    
    34   17   18 1    
    35   17   81 1    
    36   17   82 1    
    37   18   19 1    
    38   18   22 1    
    39   18   83 1    
    40   19   20 am   BACKBONE|DICT|INTERRES
    41   19   21 2    
    42   20   84 1    
    43   20   85 1    
    44   22   23 am   BACKBONE|DICT|INTERRES
    45   22   86 1    
    46   23   24 2    
    47   23   25 1    
    48   25   26 1    
    49   25   27 1    
    50   25   87 1    
    51   26   88 1    
    52   26   89 1    
    53   26   90 1    
    54   27   28 am   BACKBONE|DICT|INTERRES
    55   27   91 1    
    56   28   29 2    
    57   28   30 1    
    58   30   31 1    
    59   30   32 1    
    60   30   92 1    
    61   31   93 1    
    62   31   94 1    
    63   31   95 1    
    64   32   33 am   BACKBONE|DICT|INTERRES
    65   32   96 1    
    66   33   34 2    
    67   33   35 1    
    68   35   36 1    
    69   35   37 1    
    70   35   97 1    
    71   36   98 1    
    72   36   99 1    
    73   36  100 1    
    74   37   38 am   BACKBONE|DICT|INTERRES
    75   37  101 1    
    76   38   39 2    
    77   38   40 1    
    78   40   41 1    
    79   40   42 1    
    80   40  102 1    
    81   41  103 1    
    82   41  104 1    
    83   41  105 1    
    84   42   43 am   BACKBONE|DICT|INTERRES
    85   42  106 1    
    86   43   44 2    
    87   43   45 1    
    88   45   46 1    
    89   45   49 1    
    90   45  107 1    
    91   46   47 1    
    92   46  108 1    
    93   46  109 1    
    94   47   48 1    
    95   48  110 1    
    96   48  111 1    
    97   49   50 am   BACKBONE|DICT|INTERRES
    98   49  112 1    
    99   50   51 2    
   100   50   52 1    
   101   52   53 1    
   102   52   54 1    
   103   52  113 1    
   104   53  114 1    
   105   53  115 1    
   106   53  116 1    
   107   54   55 am   BACKBONE|DICT|INTERRES
   108   54  117 1    
   109   55   56 2    
   110   55   57 1    
   111   57   58 1    
   112   57   59 1    
   113   57  118 1    
   114   58  119 1    
   115   58  120 1    
   116   58  121 1    
   117   59   60 am   BACKBONE|DICT|INTERRES
   118   59  122 1    
   119   60   61 2    
   120   60   62 1    
   121   62   63 1    
   122   62   64 1    
   123   62  123 1    
   124   63  124 1    
   125   63  125 1    
   126   63  126 1    
   127   64   65 am   BACKBONE|DICT|INTERRES
   128   64  127 1    
   129   65   66 2    
@<TRIPOS>SUBSTRUCTURE
     1 UNK         1 GROUP             0       ****    0 ROOT    
