@<TRIPOS>MOLECULE
3R134
127   129    1
SMALL
USER_CHARGES


@<TRIPOS>ATOM
      1 CA         36.8314  -43.8641  -49.2740 C.3       0 UNK        -0.1968 
      2 C          35.8897  -44.5483  -50.2542 C.2       0 UNK         0.4852 
      3 O          36.3278  -45.4025  -51.0263 O.2       0 UNK        -0.5359 
      4 N          34.6046  -44.1725  -50.2337 N.am      1 UNK        -0.4300 
      5 CA         33.5438  -44.7473  -51.0674 C.3       1 UNK         0.0863 
      6 C6         32.2613  -43.8749  -51.0547 C.3       11 UNK        -0.0953 
      7 S7         32.5762  -42.1465  -51.5564 S.3       11 UNK        -0.2369 
      8 C8         31.3726  -41.9042  -52.9104 C.3       11 UNK         0.0226 
      9 C9         31.6270  -42.7002  -54.1927 C.ar      11 UNK        -0.0699 
     10 C10        32.8474  -43.3277  -54.4700 C.ar      11 UNK        -0.0804 
     11 C11        33.0308  -44.0493  -55.6519 C.ar      11 UNK        -0.0871 
     12 C12        31.9866  -44.1287  -56.5785 C.ar      11 UNK        -0.1008 
     13 C13        30.7636  -43.4961  -56.3284 C.ar      11 UNK        -0.0735 
     14 C14        30.5994  -42.7797  -55.1370 C.ar      11 UNK        -0.0945 
     15 C15        29.6385  -43.5700  -57.3591 C.3       11 UNK         0.0169 
     16 S16        28.0161  -43.9359  -56.6095 S.3       11 UNK        -0.2669 
     17 C17        27.0060  -44.2806  -58.0880 C.3       11 UNK        -0.0850 
     18 CA         25.5042  -44.4429  -57.7296 C.3       10 UNK         0.0855 
     19 C          24.5975  -44.5011  -58.9941 C.2       10 UNK         0.5543 
     20 N          23.6158  -45.3924  -59.0787 N.am      10 UNK        -0.7343 
     21 O          24.7694  -43.7030  -59.9125 O.2       10 UNK        -0.5027 
     22 N          25.2926  -45.5825  -56.8241 N.am      10 UNK        -0.4495 
     23 C          24.5997  -45.5470  -55.6785 C.2       10 UNK         0.4903 
     24 O          24.1081  -44.5194  -55.2083 O.2       10 UNK        -0.4860 
     25 CA         24.4189  -46.8869  -54.9302 C.3       9 UNK         0.0227 
     26 CB         23.1740  -46.8960  -54.0174 C.3       9 UNK        -0.1964 
     27 N          24.4207  -48.0601  -55.8137 N.am      9 UNK        -0.4231 
     28 C          23.6002  -48.2978  -56.8509 C.2       9 UNK         0.5014 
     29 O          22.6590  -47.5641  -57.1595 O.2       9 UNK        -0.5270 
     30 CA         23.9243  -49.5323  -57.7216 C.3       8 UNK         0.0284 
     31 CB         23.3633  -49.4045  -59.1543 C.3       8 UNK        -0.1977 
     32 N          25.3572  -49.8648  -57.7657 N.am      8 UNK        -0.4342 
     33 C          26.3605  -49.0497  -58.1235 C.2       8 UNK         0.5039 
     34 O          26.2109  -47.8807  -58.4901 O.2       8 UNK        -0.5547 
     35 CA         27.7776  -49.6317  -58.0192 C.3       7 UNK         0.0281 
     36 CB         28.2934  -50.0598  -59.4017 C.3       7 UNK        -0.1963 
     37 N          28.7032  -48.6603  -57.4406 N.am      7 UNK        -0.4444 
     38 C          28.6314  -48.1568  -56.2025 C.2       7 UNK         0.5104 
     39 O          27.7841  -48.4966  -55.3729 O.2       7 UNK        -0.5100 
     40 CA         29.7049  -47.1143  -55.8416 C.3       6 UNK         0.0396 
     41 CB         29.5715  -46.5847  -54.4024 C.3       6 UNK        -0.1801 
     42 N          31.0589  -47.6299  -56.0492 N.am      6 UNK        -0.4747 
     43 C          31.6911  -47.6893  -57.2305 C.2       6 UNK         0.5012 
     44 O          31.1802  -47.3056  -58.2844 O.2       6 UNK        -0.5003 
     45 CA         33.0915  -48.3240  -57.2710 C.3       5 UNK         0.0782 
     46 C46        34.2291  -47.2839  -57.1215 C.3       11 UNK        -0.0868 
     47 S47        34.3586  -46.4824  -55.4817 S.3       11 UNK        -0.2515 
     48 C48        34.3721  -44.7141  -55.9253 C.3       11 UNK         0.0199 
     49 N          33.1945  -49.4354  -56.3206 N.am      5 UNK        -0.4607 
     50 C          33.4305  -50.7080  -56.6707 C.2       4 UNK         0.5031 
     51 O          33.6944  -51.0653  -57.8194 O.2       4 UNK        -0.5119 
     52 CA         33.3462  -51.7805  -55.5675 C.3       4 UNK         0.0263 
     53 CB         34.7364  -52.0382  -54.9644 C.3       4 UNK        -0.1967 
     54 N          32.4123  -51.4408  -54.4932 N.am      4 UNK        -0.4237 
     55 C          31.0905  -51.2648  -54.6361 C.2       3 UNK         0.4908 
     56 O          30.4779  -51.5029  -55.6770 O.2       3 UNK        -0.5102 
     57 CA         30.3191  -50.7040  -53.4241 C.3       3 UNK         0.0241 
     58 CB         29.4606  -51.8045  -52.7792 C.3       3 UNK        -0.1971 
     59 N          31.1466  -50.0705  -52.3852 N.am      3 UNK        -0.4139 
     60 C          31.9628  -49.0231  -52.5658 C.2       2 UNK         0.5016 
     61 O          32.1871  -48.5078  -53.6639 O.2       2 UNK        -0.5319 
     62 CA         32.6909  -48.4957  -51.3289 C.3       2 UNK         0.0286 
     63 CB         33.9679  -49.3123  -51.0585 C.3       2 UNK        -0.1963 
     64 N          33.0375  -47.0970  -51.5627 N.am      2 UNK        -0.4790 
     65 C          33.2227  -46.1825  -50.6063 C.2       1 UNK         0.5024 
     66 O          33.1262  -46.4272  -49.4006 O.2       1 UNK        -0.4888 
     67 H67        37.6338  -43.3613  -49.8132 H         1 UNK         0.0892 
     68 H68        36.3167  -43.1220  -48.6638 H         1 UNK         0.0892 
     69 H69        37.2779  -44.6008  -48.6067 H         1 UNK         0.0892 
     70 H70        34.3008  -43.4735  -49.5714 H         1 UNK         0.3107 
     71 H71        33.9196  -44.7989  -52.0909 H         1 UNK         0.0773 
     72 H72        31.5064  -44.3079  -51.7142 H         1 UNK         0.0680 
     73 H73        31.8173  -43.8557  -50.0574 H         1 UNK         0.0680 
     74 H74        31.3624  -40.8439  -53.1656 H         1 UNK         0.0650 
     75 H75        30.3778  -42.1383  -52.5280 H         1 UNK         0.0650 
     76 H76        33.6696  -43.2524  -53.7746 H         1 UNK         0.1397 
     77 H77        32.1293  -44.6810  -57.4972 H         1 UNK         0.1363 
     78 H78        29.6599  -42.2812  -54.9412 H         1 UNK         0.1355 
     79 H79        29.8597  -44.3370  -58.1034 H         1 UNK         0.0707 
     80 H80        29.5817  -42.6206  -57.8929 H         1 UNK         0.0707 
     81 H81        27.1498  -43.4594  -58.7929 H         1 UNK         0.1034 
     82 H82        27.3816  -45.1812  -58.5779 H         1 UNK         0.1034 
     83 H83        25.2019  -43.5240  -57.2243 H         1 UNK         0.0482 
     84 H84        23.4351  -46.0459  -58.3257 H         1 UNK         0.3460 
     85 H85        23.0364  -45.4058  -59.9024 H         1 UNK         0.3460 
     86 H86        25.6232  -46.4744  -57.1811 H         1 UNK         0.2989 
     87 H87        25.2976  -46.9919  -54.2920 H         1 UNK         0.0559 
     88 H88        22.2566  -46.7323  -54.5838 H         1 UNK         0.0848 
     89 H89        23.2342  -46.1106  -53.2630 H         1 UNK         0.0848 
     90 H90        23.0767  -47.8433  -53.4873 H         1 UNK         0.0848 
     91 H91        25.1934  -48.6986  -55.6746 H         1 UNK         0.3144 
     92 H92        23.4249  -50.3765  -57.2437 H         1 UNK         0.0727 
     93 H93        23.7817  -48.5421  -59.6750 H         1 UNK         0.0790 
     94 H94        22.2793  -49.2840  -59.1439 H         1 UNK         0.0790 
     95 H95        23.5824  -50.2923  -59.7474 H         1 UNK         0.0790 
     96 H96        25.5911  -50.8026  -57.4674 H         1 UNK         0.3215 
     97 H97        27.7639  -50.5050  -57.3632 H         1 UNK         0.0863 
     98 H98        29.2872  -50.5033  -59.3346 H         1 UNK         0.0808 
     99 H99        28.3475  -49.2151  -60.0901 H         1 UNK         0.0808 
    100 H100       27.6355  -50.8050  -59.8509 H         1 UNK         0.0808 
    101 H101       29.4276  -48.2910  -58.0468 H         1 UNK         0.3118 
    102 H102       29.5609  -46.2733  -56.5164 H         1 UNK         0.0546 
    103 H103       30.3387  -45.8417  -54.1824 H         1 UNK         0.0828 
    104 H104       29.6525  -47.3834  -53.6658 H         1 UNK         0.0828 
    105 H105       28.6040  -46.1029  -54.2565 H         1 UNK         0.0828 
    106 H106       31.5390  -47.9540  -55.2109 H         1 UNK         0.3005 
    107 H107       33.1784  -48.7184  -58.2863 H         1 UNK         0.1257 
    108 H108       34.1316  -46.5286  -57.9027 H         1 UNK         0.0775 
    109 H109       35.1843  -47.7736  -57.3165 H         1 UNK         0.0775 
    110 H110       35.1539  -44.2261  -55.3412 H         1 UNK         0.0840 
    111 H111       34.6586  -44.5682  -56.9673 H         1 UNK         0.0840 
    112 H112       32.9882  -49.2151  -55.3516 H         1 UNK         0.2987 
    113 H113       32.9945  -52.7037  -56.0331 H         1 UNK         0.0785 
    114 H114       35.4510  -52.3202  -55.7391 H         1 UNK         0.0798 
    115 H115       34.7111  -52.8515  -54.2387 H         1 UNK         0.0798 
    116 H116       35.1307  -51.1521  -54.4648 H         1 UNK         0.0798 
    117 H117       32.8183  -51.2255  -53.5951 H         1 UNK         0.3079 
    118 H118       29.6477  -49.9357  -53.8120 H         1 UNK         0.0794 
    119 H119       30.0758  -52.5923  -52.3426 H         1 UNK         0.0786 
    120 H120       28.8061  -52.2726  -53.5162 H         1 UNK         0.0786 
    121 H121       28.8206  -51.4011  -51.9943 H         1 UNK         0.0786 
    122 H122       31.0467  -50.4460  -51.4525 H         1 UNK         0.3032 
    123 H123       32.0161  -48.5660  -50.4725 H         1 UNK         0.1094 
    124 H124       33.7361  -50.3636  -50.8839 H         1 UNK         0.0794 
    125 H125       34.6611  -49.2634  -51.8996 H         1 UNK         0.0794 
    126 H126       34.4921  -48.9481  -50.1747 H         1 UNK         0.0794 
    127 H127       33.0834  -46.8407  -52.5427 H         1 UNK         0.3016 
@<TRIPOS>BOND
     1    1    2 1    
     2    1   67 1    
     3    1   68 1    
     4    1   69 1    
     5    2    3 2    
     6    2    4 am   BACKBONE|DICT|INTERRES
     7    4    5 1    
     8    4   70 1    
     9    5    6 1    
    10    5   65 1    
    11    5   71 1    
    12    6    7 1    
    13    6   72 1    
    14    6   73 1    
    15    7    8 1    
    16    8    9 1    
    17    8   74 1    
    18    8   75 1    
    19    9   10 ar   
    20    9   14 ar   
    21   10   11 ar   
    22   10   76 1    
    23   11   12 ar   
    24   11   48 1    
    25   12   13 ar   
    26   12   77 1    
    27   13   14 ar   
    28   13   15 1    
    29   14   78 1    
    30   15   16 1    
    31   15   79 1    
    32   15   80 1    
    33   16   17 1    
    34   17   18 1    
    35   17   81 1    
    36   17   82 1    
    37   18   19 1    
    38   18   22 1    
    39   18   83 1    
    40   19   20 am   BACKBONE|DICT|INTERRES
    41   19   21 2    
    42   20   84 1    
    43   20   85 1    
    44   22   23 am   BACKBONE|DICT|INTERRES
    45   22   86 1    
    46   23   24 2    
    47   23   25 1    
    48   25   26 1    
    49   25   27 1    
    50   25   87 1    
    51   26   88 1    
    52   26   89 1    
    53   26   90 1    
    54   27   28 am   BACKBONE|DICT|INTERRES
    55   27   91 1    
    56   28   29 2    
    57   28   30 1    
    58   30   31 1    
    59   30   32 1    
    60   30   92 1    
    61   31   93 1    
    62   31   94 1    
    63   31   95 1    
    64   32   33 am   BACKBONE|DICT|INTERRES
    65   32   96 1    
    66   33   34 2    
    67   33   35 1    
    68   35   36 1    
    69   35   37 1    
    70   35   97 1    
    71   36   98 1    
    72   36   99 1    
    73   36  100 1    
    74   37   38 am   BACKBONE|DICT|INTERRES
    75   37  101 1    
    76   38   39 2    
    77   38   40 1    
    78   40   41 1    
    79   40   42 1    
    80   40  102 1    
    81   41  103 1    
    82   41  104 1    
    83   41  105 1    
    84   42   43 am   BACKBONE|DICT|INTERRES
    85   42  106 1    
    86   43   44 2    
    87   43   45 1    
    88   45   46 1    
    89   45   49 1    
    90   45  107 1    
    91   46   47 1    
    92   46  108 1    
    93   46  109 1    
    94   47   48 1    
    95   48  110 1    
    96   48  111 1    
    97   49   50 am   BACKBONE|DICT|INTERRES
    98   49  112 1    
    99   50   51 2    
   100   50   52 1    
   101   52   53 1    
   102   52   54 1    
   103   52  113 1    
   104   53  114 1    
   105   53  115 1    
   106   53  116 1    
   107   54   55 am   BACKBONE|DICT|INTERRES
   108   54  117 1    
   109   55   56 2    
   110   55   57 1    
   111   57   58 1    
   112   57   59 1    
   113   57  118 1    
   114   58  119 1    
   115   58  120 1    
   116   58  121 1    
   117   59   60 am   BACKBONE|DICT|INTERRES
   118   59  122 1    
   119   60   61 2    
   120   60   62 1    
   121   62   63 1    
   122   62   64 1    
   123   62  123 1    
   124   63  124 1    
   125   63  125 1    
   126   63  126 1    
   127   64   65 am   BACKBONE|DICT|INTERRES
   128   64  127 1    
   129   65   66 2    
@<TRIPOS>SUBSTRUCTURE
     1 UNK         1 GROUP             0       ****    0 ROOT    
