@<TRIPOS>MOLECULE
3R134
127   129    1
SMALL
USER_CHARGES


@<TRIPOS>ATOM
      1 CA         38.2650  -44.8166  -50.2470 C.3       0 UNK        -0.1968 
      2 C          37.8693  -45.8605  -51.2809 C.2       0 UNK         0.4852 
      3 O          38.4360  -46.9541  -51.2925 O.2       0 UNK        -0.5359 
      4 N          36.9021  -45.5310  -52.1481 N.am      1 UNK        -0.4300 
      5 CA         36.3732  -46.4145  -53.1959 C.3       1 UNK         0.0863 
      6 C6         35.6764  -45.5998  -54.3157 C.3       11 UNK        -0.0953 
      7 S7         34.1804  -44.7217  -53.7502 S.3       11 UNK        -0.2369 
      8 C8         33.4169  -44.2050  -55.3289 C.3       11 UNK         0.0226 
      9 C9         31.9276  -43.8539  -55.2418 C.ar      11 UNK        -0.0699 
     10 C10        31.2683  -43.6599  -54.0206 C.ar      11 UNK        -0.0804 
     11 C11        29.8940  -43.4193  -53.9776 C.ar      11 UNK        -0.0871 
     12 C12        29.1742  -43.3209  -55.1692 C.ar      11 UNK        -0.1008 
     13 C13        29.8161  -43.4832  -56.4005 C.ar      11 UNK        -0.0735 
     14 C14        31.1899  -43.7511  -56.4271 C.ar      11 UNK        -0.0945 
     15 C15        29.0171  -43.4543  -57.6970 C.3       11 UNK         0.0169 
     16 S16        27.8898  -42.0275  -57.8173 S.3       11 UNK        -0.2669 
     17 C17        26.9768  -42.4502  -59.3404 C.3       11 UNK        -0.0850 
     18 CA         25.5806  -43.0763  -59.0731 C.3       10 UNK         0.0855 
     19 C          24.8114  -43.2556  -60.4165 C.2       10 UNK         0.5543 
     20 N          24.6117  -44.4701  -60.9168 N.am      10 UNK        -0.7343 
     21 O          24.3899  -42.2688  -61.0145 O.2       10 UNK        -0.5027 
     22 N          25.6726  -44.3017  -58.2622 N.am      10 UNK        -0.4495 
     23 C          24.6399  -44.9272  -57.6821 C.2       10 UNK         0.4903 
     24 O          23.5035  -44.4540  -57.6306 O.2       10 UNK        -0.4860 
     25 CA         24.9162  -46.3164  -57.0615 C.3       9 UNK         0.0227 
     26 CB         23.6979  -47.2564  -57.1734 C.3       9 UNK        -0.1964 
     27 N          26.1231  -46.9958  -57.5636 N.am      9 UNK        -0.4231 
     28 C          26.4102  -47.2999  -58.8410 C.2       9 UNK         0.5014 
     29 O          25.6871  -47.0071  -59.7948 O.2       9 UNK        -0.5270 
     30 CA         27.7442  -48.0082  -59.1157 C.3       8 UNK         0.0284 
     31 CB         28.8892  -46.9887  -59.2255 C.3       8 UNK        -0.1977 
     32 N          28.0754  -49.0211  -58.1112 N.am      8 UNK        -0.4342 
     33 C          27.5695  -50.2628  -58.1186 C.2       8 UNK         0.5039 
     34 O          26.7443  -50.6611  -58.9423 O.2       8 UNK        -0.5547 
     35 CA         28.0835  -51.2385  -57.0470 C.3       7 UNK         0.0281 
     36 CB         29.5181  -51.6915  -57.3617 C.3       7 UNK        -0.1963 
     37 N          28.0223  -50.6879  -55.6936 N.am      7 UNK        -0.4444 
     38 C          26.8846  -50.4421  -55.0287 C.2       7 UNK         0.5104 
     39 O          25.7601  -50.6612  -55.4796 O.2       7 UNK        -0.5100 
     40 CA         27.0236  -49.8514  -53.6159 C.3       6 UNK         0.0396 
     41 CB         27.2336  -50.9665  -52.5792 C.3       6 UNK        -0.1801 
     42 N          28.1110  -48.8780  -53.5128 N.am      6 UNK        -0.4747 
     43 C          28.1182  -47.6829  -54.1201 C.2       6 UNK         0.5012 
     44 O          27.2095  -47.2721  -54.8418 O.2       6 UNK        -0.5003 
     45 CA         29.3872  -46.8307  -53.9341 C.3       5 UNK         0.0782 
     46 C46        29.4492  -46.1810  -52.5257 C.3       11 UNK        -0.0868 
     47 S47        28.2112  -44.8516  -52.3075 S.3       11 UNK        -0.2515 
     48 C48        29.1789  -43.3410  -52.6379 C.3       11 UNK         0.0199 
     49 N          30.5970  -47.5987  -54.2403 N.am      5 UNK        -0.4607 
     50 C          30.8649  -48.1470  -55.4373 C.2       4 UNK         0.5031 
     51 O          30.1402  -48.0275  -56.4236 O.2       4 UNK        -0.5119 
     52 CA         32.1233  -49.0249  -55.5525 C.3       4 UNK         0.0263 
     53 CB         33.3198  -48.1610  -55.9644 C.3       4 UNK        -0.1967 
     54 N          32.4430  -49.7450  -54.3189 N.am      4 UNK        -0.4237 
     55 C          31.6084  -50.5787  -53.6794 C.2       3 UNK         0.4908 
     56 O          30.5181  -50.9311  -54.1324 O.2       3 UNK        -0.5102 
     57 CA         32.0193  -51.0606  -52.2767 C.3       3 UNK         0.0241 
     58 CB         32.4873  -52.5235  -52.3318 C.3       3 UNK        -0.1971 
     59 N          33.0492  -50.2500  -51.6142 N.am      3 UNK        -0.4139 
     60 C          32.9869  -48.9367  -51.3437 C.2       2 UNK         0.5016 
     61 O          32.0433  -48.2125  -51.6683 O.2       2 UNK        -0.5319 
     62 CA         34.1880  -48.3176  -50.6020 C.3       2 UNK         0.0286 
     63 CB         35.1621  -49.3563  -49.9992 C.3       2 UNK        -0.1963 
     64 N          34.9354  -47.3584  -51.4242 N.am      2 UNK        -0.4790 
     65 C          35.4875  -47.5567  -52.6341 C.2       1 UNK         0.5024 
     66 O          35.3468  -48.5904  -53.2909 O.2       1 UNK        -0.4888 
     67 H67        37.6887  -43.8976  -50.3530 H         1 UNK         0.0892 
     68 H68        38.1029  -45.2043  -49.2416 H         1 UNK         0.0892 
     69 H69        39.3208  -44.5678  -50.3504 H         1 UNK         0.0892 
     70 H70        36.4742  -44.6167  -52.0978 H         1 UNK         0.3107 
     71 H71        37.2316  -46.9075  -53.6579 H         1 UNK         0.0773 
     72 H72        35.4303  -46.2505  -55.1546 H         1 UNK         0.0680 
     73 H73        36.3701  -44.8603  -54.7190 H         1 UNK         0.0680 
     74 H74        33.5415  -45.0095  -56.0548 H         1 UNK         0.0650 
     75 H75        33.9638  -43.3451  -55.7173 H         1 UNK         0.0650 
     76 H76        31.8052  -43.7350  -53.0867 H         1 UNK         0.1397 
     77 H77        28.1058  -43.1546  -55.1351 H         1 UNK         0.1363 
     78 H78        31.6857  -43.9057  -57.3759 H         1 UNK         0.1355 
     79 H79        29.6822  -43.4526  -58.5622 H         1 UNK         0.0707 
     80 H80        28.4327  -44.3709  -57.7491 H         1 UNK         0.0707 
     81 H81        26.8689  -41.5262  -59.9123 H         1 UNK         0.1034 
     82 H82        27.5826  -43.1117  -59.9628 H         1 UNK         0.1034 
     83 H83        25.0048  -42.3550  -58.4899 H         1 UNK         0.0482 
     84 H84        24.1107  -44.5679  -61.7853 H         1 UNK         0.3460 
     85 H85        24.9620  -45.2969  -60.4423 H         1 UNK         0.3460 
     86 H86        26.5660  -44.7657  -58.2570 H         1 UNK         0.2989 
     87 H87        25.0915  -46.1335  -56.0009 H         1 UNK         0.0559 
     88 H88        23.4258  -47.4410  -58.2131 H         1 UNK         0.0848 
     89 H89        22.8239  -46.8319  -56.6779 H         1 UNK         0.0848 
     90 H90        23.8979  -48.2194  -56.7028 H         1 UNK         0.0848 
     91 H91        26.7807  -47.2642  -56.8372 H         1 UNK         0.3144 
     92 H92        27.6545  -48.4998  -60.0872 H         1 UNK         0.0727 
     93 H93        29.0872  -46.4992  -58.2728 H         1 UNK         0.0790 
     94 H94        28.6581  -46.2120  -59.9559 H         1 UNK         0.0790 
     95 H95        29.8137  -47.4695  -59.5455 H         1 UNK         0.0790 
     96 H96        28.7702  -48.7626  -57.4111 H         1 UNK         0.3215 
     97 H97        27.4429  -52.1230  -57.0713 H         1 UNK         0.0863 
     98 H98        29.8819  -52.4057  -56.6226 H         1 UNK         0.0808 
     99 H99        30.2105  -50.8511  -57.3853 H         1 UNK         0.0808 
    100 H100       29.5663  -52.1788  -58.3364 H         1 UNK         0.0808 
    101 H101       28.9047  -50.5397  -55.2116 H         1 UNK         0.3118 
    102 H102       26.0900  -49.3372  -53.3775 H         1 UNK         0.0546 
    103 H103       26.4213  -51.6934  -52.6201 H         1 UNK         0.0828 
    104 H104       27.2581  -50.5671  -51.5653 H         1 UNK         0.0828 
    105 H105       28.1643  -51.5093  -52.7496 H         1 UNK         0.0828 
    106 H106       28.9295  -49.1601  -52.9924 H         1 UNK         0.3005 
    107 H107       29.3403  -46.0376  -54.6813 H         1 UNK         0.1257 
    108 H108       30.4421  -45.7686  -52.3421 H         1 UNK         0.0775 
    109 H109       29.3029  -46.9283  -51.7435 H         1 UNK         0.0775 
    110 H110       28.5106  -42.4788  -52.6296 H         1 UNK         0.0840 
    111 H111       29.8894  -43.1857  -51.8243 H         1 UNK         0.0840 
    112 H112       31.2277  -47.7728  -53.4632 H         1 UNK         0.2987 
    113 H113       31.9506  -49.7675  -56.3321 H         1 UNK         0.0785 
    114 H114       33.5095  -47.3936  -55.2160 H         1 UNK         0.0798 
    115 H115       33.1329  -47.6563  -56.9133 H         1 UNK         0.0798 
    116 H116       34.2264  -48.7552  -56.0807 H         1 UNK         0.0798 
    117 H117       33.3201  -49.5077  -53.8708 H         1 UNK         0.3079 
    118 H118       31.1237  -51.0116  -51.6542 H         1 UNK         0.0794 
    119 H119       33.4027  -52.6322  -52.9149 H         1 UNK         0.0786 
    120 H120       31.7299  -53.1595  -52.7928 H         1 UNK         0.0786 
    121 H121       32.6740  -52.9198  -51.3335 H         1 UNK         0.0786 
    122 H122       33.8844  -50.7409  -51.3294 H         1 UNK         0.3032 
    123 H123       33.7599  -47.7505  -49.7736 H         1 UNK         0.1094 
    124 H124       35.9277  -48.8649  -49.3984 H         1 UNK         0.0794 
    125 H125       34.6434  -50.0532  -49.3391 H         1 UNK         0.0794 
    126 H126       35.6770  -49.9365  -50.7660 H         1 UNK         0.0794 
    127 H127       35.0749  -46.4494  -51.0065 H         1 UNK         0.3016 
@<TRIPOS>BOND
     1    1    2 1    
     2    1   67 1    
     3    1   68 1    
     4    1   69 1    
     5    2    3 2    
     6    2    4 am   BACKBONE|DICT|INTERRES
     7    4    5 1    
     8    4   70 1    
     9    5    6 1    
    10    5   65 1    
    11    5   71 1    
    12    6    7 1    
    13    6   72 1    
    14    6   73 1    
    15    7    8 1    
    16    8    9 1    
    17    8   74 1    
    18    8   75 1    
    19    9   10 ar   
    20    9   14 ar   
    21   10   11 ar   
    22   10   76 1    
    23   11   12 ar   
    24   11   48 1    
    25   12   13 ar   
    26   12   77 1    
    27   13   14 ar   
    28   13   15 1    
    29   14   78 1    
    30   15   16 1    
    31   15   79 1    
    32   15   80 1    
    33   16   17 1    
    34   17   18 1    
    35   17   81 1    
    36   17   82 1    
    37   18   19 1    
    38   18   22 1    
    39   18   83 1    
    40   19   20 am   BACKBONE|DICT|INTERRES
    41   19   21 2    
    42   20   84 1    
    43   20   85 1    
    44   22   23 am   BACKBONE|DICT|INTERRES
    45   22   86 1    
    46   23   24 2    
    47   23   25 1    
    48   25   26 1    
    49   25   27 1    
    50   25   87 1    
    51   26   88 1    
    52   26   89 1    
    53   26   90 1    
    54   27   28 am   BACKBONE|DICT|INTERRES
    55   27   91 1    
    56   28   29 2    
    57   28   30 1    
    58   30   31 1    
    59   30   32 1    
    60   30   92 1    
    61   31   93 1    
    62   31   94 1    
    63   31   95 1    
    64   32   33 am   BACKBONE|DICT|INTERRES
    65   32   96 1    
    66   33   34 2    
    67   33   35 1    
    68   35   36 1    
    69   35   37 1    
    70   35   97 1    
    71   36   98 1    
    72   36   99 1    
    73   36  100 1    
    74   37   38 am   BACKBONE|DICT|INTERRES
    75   37  101 1    
    76   38   39 2    
    77   38   40 1    
    78   40   41 1    
    79   40   42 1    
    80   40  102 1    
    81   41  103 1    
    82   41  104 1    
    83   41  105 1    
    84   42   43 am   BACKBONE|DICT|INTERRES
    85   42  106 1    
    86   43   44 2    
    87   43   45 1    
    88   45   46 1    
    89   45   49 1    
    90   45  107 1    
    91   46   47 1    
    92   46  108 1    
    93   46  109 1    
    94   47   48 1    
    95   48  110 1    
    96   48  111 1    
    97   49   50 am   BACKBONE|DICT|INTERRES
    98   49  112 1    
    99   50   51 2    
   100   50   52 1    
   101   52   53 1    
   102   52   54 1    
   103   52  113 1    
   104   53  114 1    
   105   53  115 1    
   106   53  116 1    
   107   54   55 am   BACKBONE|DICT|INTERRES
   108   54  117 1    
   109   55   56 2    
   110   55   57 1    
   111   57   58 1    
   112   57   59 1    
   113   57  118 1    
   114   58  119 1    
   115   58  120 1    
   116   58  121 1    
   117   59   60 am   BACKBONE|DICT|INTERRES
   118   59  122 1    
   119   60   61 2    
   120   60   62 1    
   121   62   63 1    
   122   62   64 1    
   123   62  123 1    
   124   63  124 1    
   125   63  125 1    
   126   63  126 1    
   127   64   65 am   BACKBONE|DICT|INTERRES
   128   64  127 1    
   129   65   66 2    
@<TRIPOS>SUBSTRUCTURE
     1 UNK         1 GROUP             0       ****    0 ROOT    
