@<TRIPOS>MOLECULE
3R134
127   129    1
SMALL
USER_CHARGES


@<TRIPOS>ATOM
      1 CA         32.5318  -47.6908  -50.1063 C.3       0 UNK        -0.1968 
      2 C          33.6504  -47.7188  -51.1370 C.2       0 UNK         0.4852 
      3 O          34.5922  -48.5002  -50.9966 O.2       0 UNK        -0.5359 
      4 N          33.5500  -46.8619  -52.1622 N.am      1 UNK        -0.4300 
      5 CA         34.5659  -46.6201  -53.1968 C.3       1 UNK         0.0863 
      6 C6         34.1753  -45.4298  -54.1060 C.3       11 UNK        -0.0953 
      7 S7         34.0686  -43.8872  -53.1427 S.3       11 UNK        -0.2369 
      8 C8         33.6228  -42.6725  -54.4266 C.3       11 UNK         0.0226 
      9 C9         32.1210  -42.4996  -54.6512 C.ar      11 UNK        -0.0699 
     10 C10        31.2032  -42.5759  -53.5953 C.ar      11 UNK        -0.0804 
     11 C11        29.8445  -42.3265  -53.8106 C.ar      11 UNK        -0.0871 
     12 C12        29.4057  -41.9700  -55.0902 C.ar      11 UNK        -0.1008 
     13 C13        30.3092  -41.8786  -56.1527 C.ar      11 UNK        -0.0735 
     14 C14        31.6603  -42.1611  -55.9279 C.ar      11 UNK        -0.0945 
     15 C15        29.8501  -41.3986  -57.5249 C.3       11 UNK         0.0169 
     16 S16        29.0157  -42.6960  -58.4925 S.3       11 UNK        -0.2669 
     17 C17        27.2779  -42.5333  -57.9498 C.3       11 UNK        -0.0850 
     18 CA         26.7515  -43.8112  -57.2344 C.3       10 UNK         0.0855 
     19 C          25.3799  -43.5954  -56.5263 C.2       10 UNK         0.5543 
     20 N          24.4835  -44.5754  -56.4930 N.am      10 UNK        -0.7343 
     21 O          25.1348  -42.5314  -55.9635 O.2       10 UNK        -0.5027 
     22 N          26.8192  -45.0291  -58.0589 N.am      10 UNK        -0.4495 
     23 C          26.1971  -45.2289  -59.2284 C.2       10 UNK         0.4903 
     24 O          25.5300  -44.3741  -59.8120 O.2       10 UNK        -0.4860 
     25 CA         26.3078  -46.6293  -59.8572 C.3       9 UNK         0.0227 
     26 CB         27.4303  -46.6628  -60.9070 C.3       9 UNK        -0.1964 
     27 N          26.4978  -47.7320  -58.9074 N.am      9 UNK        -0.4231 
     28 C          25.6385  -48.0682  -57.9293 C.2       9 UNK         0.5014 
     29 O          24.6399  -47.4063  -57.6417 O.2       9 UNK        -0.5270 
     30 CA         25.9150  -49.3640  -57.1511 C.3       8 UNK         0.0284 
     31 CB         25.1298  -50.5299  -57.7868 C.3       8 UNK        -0.1977 
     32 N          27.3471  -49.6532  -57.0977 N.am      8 UNK        -0.4342 
     33 C          27.9656  -50.6069  -56.3988 C.2       8 UNK         0.5039 
     34 O          27.3803  -51.4392  -55.7057 O.2       8 UNK        -0.5547 
     35 CA         29.5068  -50.6304  -56.4552 C.3       7 UNK         0.0281 
     36 CB         30.0073  -51.5934  -57.5484 C.3       7 UNK        -0.1963 
     37 N          30.1496  -49.3105  -56.5724 N.am      7 UNK        -0.4444 
     38 C          30.0984  -48.4249  -57.5801 C.2       7 UNK         0.5104 
     39 O          29.4534  -48.5982  -58.6166 O.2       7 UNK        -0.5100 
     40 CA         30.8049  -47.0797  -57.3218 C.3       6 UNK         0.0396 
     41 CB         30.4977  -46.0148  -58.3899 C.3       6 UNK        -0.1801 
     42 N          30.5249  -46.5578  -55.9793 N.am      6 UNK        -0.4747 
     43 C          29.3243  -46.3764  -55.4042 C.2       6 UNK         0.5012 
     44 O          28.2466  -46.5462  -55.9790 O.2       6 UNK        -0.5003 
     45 CA         29.3492  -46.0119  -53.9045 C.3       5 UNK         0.0782 
     46 C46        28.2179  -45.0216  -53.5337 C.3       11 UNK        -0.0868 
     47 S47        28.6359  -44.1036  -52.0161 S.3       11 UNK        -0.2515 
     48 C48        28.8525  -42.4066  -52.6544 C.3       11 UNK         0.0199 
     49 N          29.2839  -47.2092  -53.0534 N.am      5 UNK        -0.4607 
     50 C          30.1202  -48.2538  -53.0667 C.2       4 UNK         0.5031 
     51 O          31.1214  -48.3236  -53.7881 O.2       4 UNK        -0.5119 
     52 CA         29.7941  -49.4101  -52.1074 C.3       4 UNK         0.0263 
     53 CB         28.4216  -50.0390  -52.4004 C.3       4 UNK        -0.1967 
     54 N          30.8328  -50.4202  -52.2642 N.am      4 UNK        -0.4237 
     55 C          31.4310  -51.1279  -51.3050 C.2       3 UNK         0.4908 
     56 O          31.0393  -51.1678  -50.1386 O.2       3 UNK        -0.5102 
     57 CA         32.7273  -51.8682  -51.6929 C.3       3 UNK         0.0241 
     58 CB         32.4506  -53.3440  -52.0423 C.3       3 UNK        -0.1971 
     59 N          33.5160  -51.1848  -52.7365 N.am      3 UNK        -0.4139 
     60 C          33.2383  -51.0458  -54.0427 C.2       2 UNK         0.5016 
     61 O          32.2500  -51.5327  -54.5903 O.2       2 UNK        -0.5319 
     62 CA         34.1454  -50.0872  -54.8204 C.3       2 UNK         0.0286 
     63 CB         33.8604  -50.0583  -56.3340 C.3       2 UNK        -0.1963 
     64 N          33.9500  -48.7563  -54.2512 N.am      2 UNK        -0.4790 
     65 C          34.9244  -47.8680  -54.0306 C.2       1 UNK         0.5024 
     66 O          36.0821  -48.0165  -54.4247 O.2       1 UNK        -0.4888 
     67 H67        32.2409  -48.7028  -49.8304 H         1 UNK         0.0892 
     68 H68        32.8717  -47.1824  -49.2045 H         1 UNK         0.0892 
     69 H69        31.6484  -47.1713  -50.4767 H         1 UNK         0.0892 
     70 H70        32.7529  -46.2447  -52.2034 H         1 UNK         0.3107 
     71 H71        35.4818  -46.3469  -52.6678 H         1 UNK         0.0773 
     72 H72        33.2215  -45.6107  -54.6041 H         1 UNK         0.0680 
     73 H73        34.9186  -45.2841  -54.8926 H         1 UNK         0.0680 
     74 H74        34.0284  -41.7047  -54.1297 H         1 UNK         0.0650 
     75 H75        34.1239  -42.9402  -55.3582 H         1 UNK         0.0650 
     76 H76        31.5417  -42.8140  -52.5964 H         1 UNK         0.1397 
     77 H77        28.3616  -41.7439  -55.2548 H         1 UNK         0.1363 
     78 H78        32.3652  -42.0723  -56.7435 H         1 UNK         0.1355 
     79 H79        30.7095  -41.0525  -58.1011 H         1 UNK         0.0707 
     80 H80        29.2016  -40.5278  -57.4192 H         1 UNK         0.0707 
     81 H81        27.1906  -41.6661  -57.2948 H         1 UNK         0.1034 
     82 H82        26.6641  -42.2938  -58.8185 H         1 UNK         0.1034 
     83 H83        27.4423  -44.0017  -56.4177 H         1 UNK         0.0482 
     84 H84        23.6070  -44.4239  -56.0205 H         1 UNK         0.3460 
     85 H85        24.6662  -45.4665  -56.9412 H         1 UNK         0.3460 
     86 H86        27.3099  -45.8023  -57.6226 H         1 UNK         0.2989 
     87 H87        25.3643  -46.8174  -60.3736 H         1 UNK         0.0559 
     88 H88        27.4310  -47.6026  -61.4592 H         1 UNK         0.0848 
     89 H89        28.4136  -46.5414  -60.4533 H         1 UNK         0.0848 
     90 H90        27.3081  -45.8611  -61.6369 H         1 UNK         0.0848 
     91 H91        27.3007  -48.3211  -59.0851 H         1 UNK         0.3144 
     92 H92        25.5650  -49.2137  -56.1279 H         1 UNK         0.0727 
     93 H93        25.1831  -51.4333  -57.1799 H         1 UNK         0.0790 
     94 H94        25.5056  -50.7719  -58.7816 H         1 UNK         0.0790 
     95 H95        24.0727  -50.2800  -57.8885 H         1 UNK         0.0790 
     96 H96        27.9592  -49.0217  -57.6062 H         1 UNK         0.3215 
     97 H97        29.8347  -51.0297  -55.4947 H         1 UNK         0.0863 
     98 H98        31.0933  -51.6848  -57.5233 H         1 UNK         0.0808 
     99 H99        29.7180  -51.2667  -58.5475 H         1 UNK         0.0808 
    100 H100       29.5958  -52.5928  -57.4021 H         1 UNK         0.0808 
    101 H101       30.6451  -49.0117  -55.7389 H         1 UNK         0.3118 
    102 H102       31.8756  -47.2861  -57.3589 H         1 UNK         0.0546 
    103 H103       29.4396  -45.7615  -58.4113 H         1 UNK         0.0828 
    104 H104       30.7723  -46.3644  -59.3856 H         1 UNK         0.0828 
    105 H105       31.0544  -45.0966  -58.2035 H         1 UNK         0.0828 
    106 H106       31.3364  -46.4639  -55.3857 H         1 UNK         0.3005 
    107 H107       30.3059  -45.5199  -53.7152 H         1 UNK         0.1257 
    108 H108       28.0368  -44.3030  -54.3298 H         1 UNK         0.0775 
    109 H109       27.2688  -45.5421  -53.3927 H         1 UNK         0.0775 
    110 H110       27.8776  -42.0188  -52.9544 H         1 UNK         0.0840 
    111 H111       29.1963  -41.7650  -51.8418 H         1 UNK         0.0840 
    112 H112       28.4972  -47.2377  -52.4217 H         1 UNK         0.2987 
    113 H113       29.8089  -49.0175  -51.0887 H         1 UNK         0.0785 
    114 H114       28.2219  -50.8747  -51.7294 H         1 UNK         0.0798 
    115 H115       28.3629  -50.4148  -53.4208 H         1 UNK         0.0798 
    116 H116       27.6121  -49.3210  -52.2670 H         1 UNK         0.0798 
    117 H117       31.2395  -50.4670  -53.1937 H         1 UNK         0.3079 
    118 H118       33.3599  -51.8584  -50.8037 H         1 UNK         0.0794 
    119 H119       31.9933  -53.8611  -51.1977 H         1 UNK         0.0786 
    120 H120       33.3712  -53.8736  -52.2870 H         1 UNK         0.0786 
    121 H121       31.7687  -53.4460  -52.8869 H         1 UNK         0.0786 
    122 H122       34.3062  -50.6601  -52.3818 H         1 UNK         0.3032 
    123 H123       35.1737  -50.4238  -54.6675 H         1 UNK         0.1094 
    124 H124       32.8528  -49.7072  -56.5490 H         1 UNK         0.0794 
    125 H125       34.5595  -49.4038  -56.8545 H         1 UNK         0.0794 
    126 H126       33.9599  -51.0535  -56.7689 H         1 UNK         0.0794 
    127 H127       33.0129  -48.5536  -53.9092 H         1 UNK         0.3016 
@<TRIPOS>BOND
     1    1    2 1    
     2    1   67 1    
     3    1   68 1    
     4    1   69 1    
     5    2    3 2    
     6    2    4 am   BACKBONE|DICT|INTERRES
     7    4    5 1    
     8    4   70 1    
     9    5    6 1    
    10    5   65 1    
    11    5   71 1    
    12    6    7 1    
    13    6   72 1    
    14    6   73 1    
    15    7    8 1    
    16    8    9 1    
    17    8   74 1    
    18    8   75 1    
    19    9   10 ar   
    20    9   14 ar   
    21   10   11 ar   
    22   10   76 1    
    23   11   12 ar   
    24   11   48 1    
    25   12   13 ar   
    26   12   77 1    
    27   13   14 ar   
    28   13   15 1    
    29   14   78 1    
    30   15   16 1    
    31   15   79 1    
    32   15   80 1    
    33   16   17 1    
    34   17   18 1    
    35   17   81 1    
    36   17   82 1    
    37   18   19 1    
    38   18   22 1    
    39   18   83 1    
    40   19   20 am   BACKBONE|DICT|INTERRES
    41   19   21 2    
    42   20   84 1    
    43   20   85 1    
    44   22   23 am   BACKBONE|DICT|INTERRES
    45   22   86 1    
    46   23   24 2    
    47   23   25 1    
    48   25   26 1    
    49   25   27 1    
    50   25   87 1    
    51   26   88 1    
    52   26   89 1    
    53   26   90 1    
    54   27   28 am   BACKBONE|DICT|INTERRES
    55   27   91 1    
    56   28   29 2    
    57   28   30 1    
    58   30   31 1    
    59   30   32 1    
    60   30   92 1    
    61   31   93 1    
    62   31   94 1    
    63   31   95 1    
    64   32   33 am   BACKBONE|DICT|INTERRES
    65   32   96 1    
    66   33   34 2    
    67   33   35 1    
    68   35   36 1    
    69   35   37 1    
    70   35   97 1    
    71   36   98 1    
    72   36   99 1    
    73   36  100 1    
    74   37   38 am   BACKBONE|DICT|INTERRES
    75   37  101 1    
    76   38   39 2    
    77   38   40 1    
    78   40   41 1    
    79   40   42 1    
    80   40  102 1    
    81   41  103 1    
    82   41  104 1    
    83   41  105 1    
    84   42   43 am   BACKBONE|DICT|INTERRES
    85   42  106 1    
    86   43   44 2    
    87   43   45 1    
    88   45   46 1    
    89   45   49 1    
    90   45  107 1    
    91   46   47 1    
    92   46  108 1    
    93   46  109 1    
    94   47   48 1    
    95   48  110 1    
    96   48  111 1    
    97   49   50 am   BACKBONE|DICT|INTERRES
    98   49  112 1    
    99   50   51 2    
   100   50   52 1    
   101   52   53 1    
   102   52   54 1    
   103   52  113 1    
   104   53  114 1    
   105   53  115 1    
   106   53  116 1    
   107   54   55 am   BACKBONE|DICT|INTERRES
   108   54  117 1    
   109   55   56 2    
   110   55   57 1    
   111   57   58 1    
   112   57   59 1    
   113   57  118 1    
   114   58  119 1    
   115   58  120 1    
   116   58  121 1    
   117   59   60 am   BACKBONE|DICT|INTERRES
   118   59  122 1    
   119   60   61 2    
   120   60   62 1    
   121   62   63 1    
   122   62   64 1    
   123   62  123 1    
   124   63  124 1    
   125   63  125 1    
   126   63  126 1    
   127   64   65 am   BACKBONE|DICT|INTERRES
   128   64  127 1    
   129   65   66 2    
@<TRIPOS>SUBSTRUCTURE
     1 UNK         1 GROUP             0       ****    0 ROOT    
