@<TRIPOS>MOLECULE
3R134
127   129    1
SMALL
USER_CHARGES


@<TRIPOS>ATOM
      1 CA         37.6302  -43.4436  -48.1918 C.3       0 UNK        -0.1968 
      2 C          36.6887  -44.2819  -49.0436 C.2       0 UNK         0.4852 
      3 O          36.2274  -45.3328  -48.5934 O.2       0 UNK        -0.5359 
      4 N          36.3973  -43.8290  -50.2706 N.am      1 UNK        -0.4300 
      5 CA         35.4862  -44.4800  -51.2147 C.3       1 UNK         0.0863 
      6 C6         35.8231  -44.0925  -52.6790 C.3       11 UNK        -0.0953 
      7 S7         34.9986  -45.1775  -53.8948 S.3       11 UNK        -0.2369 
      8 C8         33.9473  -43.9837  -54.7741 C.3       11 UNK         0.0226 
      9 C9         32.8219  -44.6681  -55.5349 C.ar      11 UNK        -0.0699 
     10 C10        32.9502  -44.9478  -56.9002 C.ar      11 UNK        -0.0804 
     11 C11        31.8797  -45.4971  -57.6152 C.ar      11 UNK        -0.0871 
     12 C12        30.6809  -45.7674  -56.9519 C.ar      11 UNK        -0.1008 
     13 C13        30.5550  -45.5300  -55.5817 C.ar      11 UNK        -0.0735 
     14 C14        31.6270  -44.9759  -54.8770 C.ar      11 UNK        -0.0945 
     15 C15        29.2429  -45.8458  -54.8859 C.3       11 UNK         0.0169 
     16 S16        28.8892  -47.6305  -54.9411 S.3       11 UNK        -0.2669 
     17 C17        27.2032  -47.6754  -54.2454 C.3       11 UNK        -0.0850 
     18 CA         26.1140  -47.7345  -55.3563 C.3       10 UNK         0.0855 
     19 C          24.7217  -48.2171  -54.8428 C.2       10 UNK         0.5543 
     20 N          23.6116  -47.7870  -55.4331 N.am      10 UNK        -0.7343 
     21 O          24.6423  -49.0247  -53.9208 O.2       10 UNK        -0.5027 
     22 N          26.0675  -46.5202  -56.1889 N.am      10 UNK        -0.4495 
     23 C          25.6628  -45.3023  -55.7958 C.2       10 UNK         0.4903 
     24 O          25.3895  -45.0087  -54.6321 O.2       10 UNK        -0.4860 
     25 CA         25.5120  -44.2249  -56.8886 C.3       9 UNK         0.0227 
     26 CB         26.7585  -43.3257  -56.9314 C.3       9 UNK        -0.1964 
     27 N          25.2653  -44.7685  -58.2282 N.am      9 UNK        -0.4231 
     28 C          24.2245  -45.5369  -58.5807 C.2       9 UNK         0.5014 
     29 O          23.2915  -45.8200  -57.8267 O.2       9 UNK        -0.5270 
     30 CA         24.2652  -46.1649  -59.9866 C.3       8 UNK         0.0284 
     31 CB         25.1542  -45.3984  -60.9935 C.3       8 UNK        -0.1977 
     32 N          24.6562  -47.5797  -59.9187 N.am      8 UNK        -0.4342 
     33 C          25.7786  -48.0770  -59.3792 C.2       8 UNK         0.5039 
     34 O          26.6808  -47.3877  -58.8893 O.2       8 UNK        -0.5547 
     35 CA         25.9188  -49.6020  -59.3714 C.3       7 UNK         0.0281 
     36 CB         26.3440  -50.1320  -60.7521 C.3       7 UNK        -0.1963 
     37 N          26.9347  -49.9370  -58.3828 N.am      7 UNK        -0.4444 
     38 C          27.0185  -51.0637  -57.6711 C.2       7 UNK         0.5104 
     39 O          26.2375  -52.0086  -57.7953 O.2       7 UNK        -0.5100 
     40 CA         28.1595  -51.1285  -56.6331 C.3       6 UNK         0.0396 
     41 CB         28.5468  -52.5756  -56.2633 C.3       6 UNK        -0.1801 
     42 N          29.3517  -50.3528  -57.0088 N.am      6 UNK        -0.4747 
     43 C          30.1291  -50.5322  -58.0904 C.2       6 UNK         0.5012 
     44 O          29.9112  -51.3743  -58.9622 O.2       6 UNK        -0.5003 
     45 CA         31.3716  -49.6271  -58.2218 C.3       5 UNK         0.0782 
     46 C46        31.1087  -48.4617  -59.2064 C.3       11 UNK        -0.0868 
     47 S47        32.5964  -47.4350  -59.4817 S.3       11 UNK        -0.2515 
     48 C48        31.9985  -45.7545  -59.1110 C.3       11 UNK         0.0199 
     49 N          31.8968  -49.1694  -56.9274 N.am      5 UNK        -0.4607 
     50 C          32.5251  -49.9752  -56.0597 C.2       4 UNK         0.5031 
     51 O          32.6086  -51.1963  -56.1906 O.2       4 UNK        -0.5119 
     52 CA         33.1958  -49.3062  -54.8602 C.3       4 UNK         0.0263 
     53 CB         34.3616  -48.4054  -55.3099 C.3       4 UNK        -0.1967 
     54 N          32.2236  -48.5665  -54.0555 N.am      4 UNK        -0.4237 
     55 C          32.4147  -48.2369  -52.7736 C.2       3 UNK         0.4908 
     56 O          33.4454  -48.4844  -52.1400 O.2       3 UNK        -0.5102 
     57 CA         31.2547  -47.5350  -52.0614 C.3       3 UNK         0.0241 
     58 CB         30.2369  -48.5503  -51.5097 C.3       3 UNK        -0.1971 
     59 N          31.8170  -46.7344  -50.9830 N.am      3 UNK        -0.4139 
     60 C          31.2485  -45.6802  -50.3884 C.2       2 UNK         0.5016 
     61 O          30.1042  -45.2891  -50.6203 O.2       2 UNK        -0.5319 
     62 CA         32.1277  -44.9146  -49.3828 C.3       2 UNK         0.0286 
     63 CB         32.0024  -45.5220  -47.9764 C.3       2 UNK        -0.1963 
     64 N          33.5378  -44.9035  -49.7868 N.am      2 UNK        -0.4790 
     65 C          34.0195  -44.1992  -50.8197 C.2       1 UNK         0.5024 
     66 O          33.3591  -43.3562  -51.4288 O.2       1 UNK        -0.4888 
     67 H67        38.5092  -44.0274  -47.9197 H         1 UNK         0.0892 
     68 H68        37.9664  -42.5484  -48.7146 H         1 UNK         0.0892 
     69 H69        37.1297  -43.1332  -47.2750 H         1 UNK         0.0892 
     70 H70        36.7830  -42.9461  -50.5750 H         1 UNK         0.3107 
     71 H71        35.6392  -45.5590  -51.1320 H         1 UNK         0.0773 
     72 H72        35.5921  -43.0440  -52.8760 H         1 UNK         0.0680 
     73 H73        36.8964  -44.1947  -52.8467 H         1 UNK         0.0680 
     74 H74        33.5170  -43.2752  -54.0658 H         1 UNK         0.0650 
     75 H75        34.5668  -43.3965  -55.4534 H         1 UNK         0.0650 
     76 H76        33.8748  -44.7154  -57.4109 H         1 UNK         0.1397 
     77 H77        29.8344  -46.1624  -57.4961 H         1 UNK         0.1363 
     78 H78        31.5296  -44.7611  -53.8211 H         1 UNK         0.1355 
     79 H79        28.4498  -45.2957  -55.3870 H         1 UNK         0.0707 
     80 H80        29.2474  -45.5012  -53.8508 H         1 UNK         0.0707 
     81 H81        27.0425  -46.8278  -53.5778 H         1 UNK         0.1034 
     82 H82        27.1564  -48.5625  -53.6115 H         1 UNK         0.1034 
     83 H83        26.4120  -48.5251  -56.0424 H         1 UNK         0.0482 
     84 H84        23.6478  -47.1208  -56.1952 H         1 UNK         0.3460 
     85 H85        22.7200  -48.1165  -55.0992 H         1 UNK         0.3460 
     86 H86        26.2855  -46.6637  -57.1720 H         1 UNK         0.2989 
     87 H87        24.6519  -43.6081  -56.6205 H         1 UNK         0.0559 
     88 H88        26.6202  -42.4874  -57.6144 H         1 UNK         0.0848 
     89 H89        27.6445  -43.8762  -57.2508 H         1 UNK         0.0848 
     90 H90        26.9727  -42.9061  -55.9473 H         1 UNK         0.0848 
     91 H91        26.0032  -44.6491  -58.9072 H         1 UNK         0.3144 
     92 H92        23.2417  -46.1371  -60.3639 H         1 UNK         0.0727 
     93 H93        25.0415  -45.8075  -61.9976 H         1 UNK         0.0790 
     94 H94        26.2141  -45.4472  -60.7417 H         1 UNK         0.0790 
     95 H95        24.8722  -44.3458  -61.0459 H         1 UNK         0.0790 
     96 H96        23.9670  -48.2328  -60.2664 H         1 UNK         0.3215 
     97 H97        24.9626  -50.0410  -59.0780 H         1 UNK         0.0863 
     98 H98        26.4587  -51.2161  -60.7416 H         1 UNK         0.0808 
     99 H99        27.2933  -49.7002  -61.0724 H         1 UNK         0.0808 
    100 H100       25.6010  -49.8928  -61.5137 H         1 UNK         0.0808 
    101 H101       27.5767  -49.1773  -58.1906 H         1 UNK         0.3118 
    102 H102       27.7684  -50.6574  -55.7303 H         1 UNK         0.0546 
    103 H103       28.8859  -53.1384  -57.1334 H         1 UNK         0.0828 
    104 H104       27.6975  -53.1131  -55.8399 H         1 UNK         0.0828 
    105 H105       29.3438  -52.5951  -55.5200 H         1 UNK         0.0828 
    106 H106       29.6076  -49.6122  -56.3693 H         1 UNK         0.3005 
    107 H107       32.1457  -50.2543  -58.6713 H         1 UNK         0.1257 
    108 H108       30.8031  -48.8541  -60.1785 H         1 UNK         0.0775 
    109 H109       30.2769  -47.8466  -58.8653 H         1 UNK         0.0775 
    110 H110       32.6908  -45.0356  -59.5518 H         1 UNK         0.0840 
    111 H111       31.0404  -45.5869  -59.6058 H         1 UNK         0.0840 
    112 H112       31.9143  -48.1694  -56.7822 H         1 UNK         0.2987 
    113 H113       33.6086  -50.1095  -54.2453 H         1 UNK         0.0785 
    114 H114       34.0089  -47.5049  -55.8131 H         1 UNK         0.0798 
    115 H115       34.9705  -48.0979  -54.4603 H         1 UNK         0.0798 
    116 H116       35.0223  -48.9303  -56.0012 H         1 UNK         0.0798 
    117 H117       31.3358  -48.3558  -54.4928 H         1 UNK         0.3079 
    118 H118       30.7647  -46.8677  -52.7670 H         1 UNK         0.0794 
    119 H119       29.8306  -49.1725  -52.3081 H         1 UNK         0.0786 
    120 H120       29.3942  -48.0488  -51.0336 H         1 UNK         0.0786 
    121 H121       30.6913  -49.2152  -50.7742 H         1 UNK         0.0786 
    122 H122       32.7746  -46.9746  -50.7566 H         1 UNK         0.3032 
    123 H123       31.7679  -43.8836  -49.3462 H         1 UNK         0.1094 
    124 H124       30.9630  -45.5245  -47.6450 H         1 UNK         0.0794 
    125 H125       32.3569  -46.5531  -47.9465 H         1 UNK         0.0794 
    126 H126       32.5734  -44.9493  -47.2453 H         1 UNK         0.0794 
    127 H127       34.1820  -45.4955  -49.2733 H         1 UNK         0.3016 
@<TRIPOS>BOND
     1    1    2 1    
     2    1   67 1    
     3    1   68 1    
     4    1   69 1    
     5    2    3 2    
     6    2    4 am   BACKBONE|DICT|INTERRES
     7    4    5 1    
     8    4   70 1    
     9    5    6 1    
    10    5   65 1    
    11    5   71 1    
    12    6    7 1    
    13    6   72 1    
    14    6   73 1    
    15    7    8 1    
    16    8    9 1    
    17    8   74 1    
    18    8   75 1    
    19    9   10 ar   
    20    9   14 ar   
    21   10   11 ar   
    22   10   76 1    
    23   11   12 ar   
    24   11   48 1    
    25   12   13 ar   
    26   12   77 1    
    27   13   14 ar   
    28   13   15 1    
    29   14   78 1    
    30   15   16 1    
    31   15   79 1    
    32   15   80 1    
    33   16   17 1    
    34   17   18 1    
    35   17   81 1    
    36   17   82 1    
    37   18   19 1    
    38   18   22 1    
    39   18   83 1    
    40   19   20 am   BACKBONE|DICT|INTERRES
    41   19   21 2    
    42   20   84 1    
    43   20   85 1    
    44   22   23 am   BACKBONE|DICT|INTERRES
    45   22   86 1    
    46   23   24 2    
    47   23   25 1    
    48   25   26 1    
    49   25   27 1    
    50   25   87 1    
    51   26   88 1    
    52   26   89 1    
    53   26   90 1    
    54   27   28 am   BACKBONE|DICT|INTERRES
    55   27   91 1    
    56   28   29 2    
    57   28   30 1    
    58   30   31 1    
    59   30   32 1    
    60   30   92 1    
    61   31   93 1    
    62   31   94 1    
    63   31   95 1    
    64   32   33 am   BACKBONE|DICT|INTERRES
    65   32   96 1    
    66   33   34 2    
    67   33   35 1    
    68   35   36 1    
    69   35   37 1    
    70   35   97 1    
    71   36   98 1    
    72   36   99 1    
    73   36  100 1    
    74   37   38 am   BACKBONE|DICT|INTERRES
    75   37  101 1    
    76   38   39 2    
    77   38   40 1    
    78   40   41 1    
    79   40   42 1    
    80   40  102 1    
    81   41  103 1    
    82   41  104 1    
    83   41  105 1    
    84   42   43 am   BACKBONE|DICT|INTERRES
    85   42  106 1    
    86   43   44 2    
    87   43   45 1    
    88   45   46 1    
    89   45   49 1    
    90   45  107 1    
    91   46   47 1    
    92   46  108 1    
    93   46  109 1    
    94   47   48 1    
    95   48  110 1    
    96   48  111 1    
    97   49   50 am   BACKBONE|DICT|INTERRES
    98   49  112 1    
    99   50   51 2    
   100   50   52 1    
   101   52   53 1    
   102   52   54 1    
   103   52  113 1    
   104   53  114 1    
   105   53  115 1    
   106   53  116 1    
   107   54   55 am   BACKBONE|DICT|INTERRES
   108   54  117 1    
   109   55   56 2    
   110   55   57 1    
   111   57   58 1    
   112   57   59 1    
   113   57  118 1    
   114   58  119 1    
   115   58  120 1    
   116   58  121 1    
   117   59   60 am   BACKBONE|DICT|INTERRES
   118   59  122 1    
   119   60   61 2    
   120   60   62 1    
   121   62   63 1    
   122   62   64 1    
   123   62  123 1    
   124   63  124 1    
   125   63  125 1    
   126   63  126 1    
   127   64   65 am   BACKBONE|DICT|INTERRES
   128   64  127 1    
   129   65   66 2    
@<TRIPOS>SUBSTRUCTURE
     1 UNK         1 GROUP             0       ****    0 ROOT    
