@<TRIPOS>MOLECULE
3R134
127   129    1
SMALL
USER_CHARGES


@<TRIPOS>ATOM
      1 CA         31.7680  -43.8286  -58.3650 C.3       0 UNK        -0.1968 
      2 C          32.9638  -44.3320  -57.5688 C.2       0 UNK         0.4852 
      3 O          34.0284  -44.5491  -58.1489 O.2       0 UNK        -0.5359 
      4 N          32.7874  -44.5180  -56.2517 N.am      1 UNK        -0.4300 
      5 CA         33.7988  -44.9741  -55.2836 C.3       1 UNK         0.0863 
      6 C6         34.9444  -43.9518  -55.0386 C.3       11 UNK        -0.0953 
      7 S7         34.3839  -42.2568  -54.6683 S.3       11 UNK        -0.2369 
      8 C8         33.8513  -42.3916  -52.9268 C.3       11 UNK         0.0226 
      9 C9         32.3802  -42.7681  -52.7523 C.ar      11 UNK        -0.0699 
     10 C10        31.9943  -43.5956  -51.6909 C.ar      11 UNK        -0.0804 
     11 C11        30.6435  -43.8859  -51.4646 C.ar      11 UNK        -0.0871 
     12 C12        29.6747  -43.3617  -52.3237 C.ar      11 UNK        -0.1008 
     13 C13        30.0450  -42.5345  -53.3861 C.ar      11 UNK        -0.0735 
     14 C14        31.3938  -42.2362  -53.5916 C.ar      11 UNK        -0.0945 
     15 C15        28.9849  -41.9339  -54.2913 C.3       11 UNK         0.0169 
     16 S16        28.7799  -42.9233  -55.7981 S.3       11 UNK        -0.2669 
     17 C17        27.3469  -42.0605  -56.5339 C.3       11 UNK        -0.0850 
     18 CA         26.7170  -42.8145  -57.7334 C.3       10 UNK         0.0855 
     19 C          27.5458  -42.6364  -59.0412 C.2       10 UNK         0.5543 
     20 N          28.0245  -43.6905  -59.6908 N.am      10 UNK        -0.7343 
     21 O          27.7452  -41.5086  -59.4860 O.2       10 UNK        -0.5027 
     22 N          26.4043  -44.2028  -57.3710 N.am      10 UNK        -0.4495 
     23 C          25.4949  -44.9828  -57.9633 C.2       10 UNK         0.4903 
     24 O          24.7135  -44.5881  -58.8304 O.2       10 UNK        -0.4860 
     25 CA         25.4735  -46.4562  -57.5052 C.3       9 UNK         0.0227 
     26 CB         24.7598  -47.3813  -58.5127 C.3       9 UNK        -0.1964 
     27 N          26.8044  -46.9916  -57.1811 N.am      9 UNK        -0.4231 
     28 C          27.8814  -47.0284  -57.9843 C.2       9 UNK         0.5014 
     29 O          27.9279  -46.5311  -59.1096 O.2       9 UNK        -0.5270 
     30 CA         29.1206  -47.7502  -57.4320 C.3       8 UNK         0.0284 
     31 CB         29.8636  -46.8444  -56.4338 C.3       8 UNK        -0.1977 
     32 N          28.7786  -49.0280  -56.8008 N.am      8 UNK        -0.4342 
     33 C          28.2200  -50.0734  -57.4325 C.2       8 UNK         0.5039 
     34 O          28.0266  -50.1225  -58.6476 O.2       8 UNK        -0.5547 
     35 CA         27.7763  -51.2571  -56.5584 C.3       7 UNK         0.0281 
     36 CB         28.9217  -52.2670  -56.3748 C.3       7 UNK        -0.1963 
     37 N          27.2805  -50.8077  -55.2545 N.am      7 UNK        -0.4444 
     38 C          26.0612  -50.2846  -55.0530 C.2       7 UNK         0.5104 
     39 O          25.1929  -50.2166  -55.9225 O.2       7 UNK        -0.5100 
     40 CA         25.7581  -49.7267  -53.6493 C.3       6 UNK         0.0396 
     41 CB         25.1156  -50.8103  -52.7692 C.3       6 UNK        -0.1801 
     42 N          26.9430  -49.1918  -52.9733 N.am      6 UNK        -0.4747 
     43 C          27.6052  -48.0859  -53.3475 C.2       6 UNK         0.5012 
     44 O          27.2408  -47.3569  -54.2709 O.2       6 UNK        -0.5003 
     45 CA         28.9369  -47.7983  -52.6186 C.3       5 UNK         0.0782 
     46 C46        28.7377  -46.8439  -51.4174 C.3       11 UNK        -0.0868 
     47 S47        30.3151  -46.4969  -50.5589 S.3       11 UNK        -0.2515 
     48 C48        30.2265  -44.7072  -50.2526 C.3       11 UNK         0.0199 
     49 N          29.6222  -49.0384  -52.2271 N.am      5 UNK        -0.4607 
     50 C          30.1430  -49.9110  -53.0932 C.2       4 UNK         0.5031 
     51 O          30.0525  -49.7896  -54.3174 O.2       4 UNK        -0.5119 
     52 CA         30.8375  -51.1411  -52.5078 C.3       4 UNK         0.0263 
     53 CB         29.8771  -52.3399  -52.4383 C.3       4 UNK        -0.1967 
     54 N          31.9581  -51.4480  -53.3842 N.am      4 UNK        -0.4237 
     55 C          33.1676  -51.8572  -52.9881 C.2       3 UNK         0.4908 
     56 O          33.4263  -52.2257  -51.8414 O.2       3 UNK        -0.5102 
     57 CA         34.2948  -51.8245  -54.0404 C.3       3 UNK         0.0241 
     58 CB         34.4979  -53.2221  -54.6485 C.3       3 UNK        -0.1971 
     59 N          34.0963  -50.8511  -55.1251 N.am      3 UNK        -0.4139 
     60 C          33.9438  -49.5265  -54.9705 C.2       2 UNK         0.5016 
     61 O          33.9525  -48.9658  -53.8717 O.2       2 UNK        -0.5319 
     62 CA         33.7175  -48.7124  -56.2623 C.3       2 UNK         0.0286 
     63 CB         32.5644  -49.2938  -57.1047 C.3       2 UNK        -0.1963 
     64 N          33.4313  -47.3006  -55.9856 N.am      2 UNK        -0.4790 
     65 C          34.3393  -46.3881  -55.6113 C.2       1 UNK         0.5024 
     66 O          35.5468  -46.6282  -55.5347 O.2       1 UNK        -0.4888 
     67 H67        32.0378  -42.9314  -58.9213 H         1 UNK         0.0892 
     68 H68        31.4432  -44.5867  -59.0772 H         1 UNK         0.0892 
     69 H69        30.9225  -43.5825  -57.7244 H         1 UNK         0.0892 
     70 H70        31.8909  -44.2880  -55.8460 H         1 UNK         0.3107 
     71 H71        33.2661  -45.0873  -54.3382 H         1 UNK         0.0773 
     72 H72        35.5863  -44.2848  -54.2210 H         1 UNK         0.0680 
     73 H73        35.5877  -43.8920  -55.9183 H         1 UNK         0.0680 
     74 H74        34.0078  -41.4239  -52.4489 H         1 UNK         0.0650 
     75 H75        34.4981  -43.0982  -52.4048 H         1 UNK         0.0650 
     76 H76        32.7432  -43.9908  -51.0179 H         1 UNK         0.1397 
     77 H77        28.6285  -43.5741  -52.1518 H         1 UNK         0.1363 
     78 H78        31.6698  -41.5754  -54.4017 H         1 UNK         0.1355 
     79 H79        28.0325  -41.8700  -53.7626 H         1 UNK         0.0707 
     80 H80        29.2579  -40.9127  -54.5620 H         1 UNK         0.0707 
     81 H81        26.5878  -41.9400  -55.7594 H         1 UNK         0.1034 
     82 H82        27.6407  -41.0467  -56.8136 H         1 UNK         0.1034 
     83 H83        25.7650  -42.3223  -57.9414 H         1 UNK         0.0482 
     84 H84        28.5471  -43.5436  -60.5387 H         1 UNK         0.3460 
     85 H85        27.8628  -44.6377  -59.3614 H         1 UNK         0.3460 
     86 H86        27.0149  -44.6129  -56.6793 H         1 UNK         0.2989 
     87 H87        24.9043  -46.4778  -56.5749 H         1 UNK         0.0559 
     88 H88        23.7262  -47.0707  -58.6694 H         1 UNK         0.0848 
     89 H89        24.7368  -48.4112  -58.1556 H         1 UNK         0.0848 
     90 H90        25.2541  -47.3754  -59.4848 H         1 UNK         0.0848 
     91 H91        26.9110  -47.3546  -56.2375 H         1 UNK         0.3144 
     92 H92        29.7903  -47.9685  -58.2664 H         1 UNK         0.0727 
     93 H93        29.1939  -46.4053  -55.6949 H         1 UNK         0.0790 
     94 H94        30.3386  -46.0164  -56.9584 H         1 UNK         0.0790 
     95 H95        30.6359  -47.3852  -55.8911 H         1 UNK         0.0790 
     96 H96        28.9968  -49.1308  -55.8146 H         1 UNK         0.3215 
     97 H97        26.9636  -51.7673  -57.0807 H         1 UNK         0.0863 
     98 H98        28.6053  -53.1219  -55.7774 H         1 UNK         0.0808 
     99 H99        29.7924  -51.8223  -55.8943 H         1 UNK         0.0808 
    100 H100       29.2516  -52.6536  -57.3400 H         1 UNK         0.0808 
    101 H101       27.9470  -50.7879  -54.4967 H         1 UNK         0.3118 
    102 H102       25.0396  -48.9124  -53.7659 H         1 UNK         0.0546 
    103 H103       25.7915  -51.6495  -52.5998 H         1 UNK         0.0828 
    104 H104       24.2142  -51.2083  -53.2377 H         1 UNK         0.0828 
    105 H105       24.8233  -50.4115  -51.7977 H         1 UNK         0.0828 
    106 H106       27.3112  -49.7291  -52.2014 H         1 UNK         0.3005 
    107 H107       29.5802  -47.2874  -53.3390 H         1 UNK         0.1257 
    108 H108       28.0433  -47.2725  -50.6922 H         1 UNK         0.0775 
    109 H109       28.2899  -45.9075  -51.7529 H         1 UNK         0.0775 
    110 H110       29.2199  -44.4379  -49.9284 H         1 UNK         0.0840 
    111 H111       30.8815  -44.4679  -49.4135 H         1 UNK         0.0840 
    112 H112       29.7451  -49.1851  -51.2353 H         1 UNK         0.2987 
    113 H113       31.2001  -50.8990  -51.5062 H         1 UNK         0.0785 
    114 H114       29.0218  -52.1220  -51.7975 H         1 UNK         0.0798 
    115 H115       30.3748  -53.2176  -52.0256 H         1 UNK         0.0798 
    116 H116       29.4918  -52.6094  -53.4218 H         1 UNK         0.0798 
    117 H117       31.8412  -51.1151  -54.3322 H         1 UNK         0.3079 
    118 H118       35.2107  -51.5423  -53.5172 H         1 UNK         0.0794 
    119 H119       35.3591  -53.2446  -55.3166 H         1 UNK         0.0786 
    120 H120       33.6235  -53.5475  -55.2136 H         1 UNK         0.0786 
    121 H121       34.6769  -53.9649  -53.8695 H         1 UNK         0.0786 
    122 H122       34.0800  -51.2291  -56.0615 H         1 UNK         0.3032 
    123 H123       34.6372  -48.7648  -56.8498 H         1 UNK         0.1094 
    124 H124       31.6578  -49.4283  -56.5148 H         1 UNK         0.0794 
    125 H125       32.3225  -48.6486  -57.9496 H         1 UNK         0.0794 
    126 H126       32.8251  -50.2674  -57.5204 H         1 UNK         0.0794 
    127 H127       32.4629  -47.0235  -56.0090 H         1 UNK         0.3016 
@<TRIPOS>BOND
     1    1    2 1    
     2    1   67 1    
     3    1   68 1    
     4    1   69 1    
     5    2    3 2    
     6    2    4 am   BACKBONE|DICT|INTERRES
     7    4    5 1    
     8    4   70 1    
     9    5    6 1    
    10    5   65 1    
    11    5   71 1    
    12    6    7 1    
    13    6   72 1    
    14    6   73 1    
    15    7    8 1    
    16    8    9 1    
    17    8   74 1    
    18    8   75 1    
    19    9   10 ar   
    20    9   14 ar   
    21   10   11 ar   
    22   10   76 1    
    23   11   12 ar   
    24   11   48 1    
    25   12   13 ar   
    26   12   77 1    
    27   13   14 ar   
    28   13   15 1    
    29   14   78 1    
    30   15   16 1    
    31   15   79 1    
    32   15   80 1    
    33   16   17 1    
    34   17   18 1    
    35   17   81 1    
    36   17   82 1    
    37   18   19 1    
    38   18   22 1    
    39   18   83 1    
    40   19   20 am   BACKBONE|DICT|INTERRES
    41   19   21 2    
    42   20   84 1    
    43   20   85 1    
    44   22   23 am   BACKBONE|DICT|INTERRES
    45   22   86 1    
    46   23   24 2    
    47   23   25 1    
    48   25   26 1    
    49   25   27 1    
    50   25   87 1    
    51   26   88 1    
    52   26   89 1    
    53   26   90 1    
    54   27   28 am   BACKBONE|DICT|INTERRES
    55   27   91 1    
    56   28   29 2    
    57   28   30 1    
    58   30   31 1    
    59   30   32 1    
    60   30   92 1    
    61   31   93 1    
    62   31   94 1    
    63   31   95 1    
    64   32   33 am   BACKBONE|DICT|INTERRES
    65   32   96 1    
    66   33   34 2    
    67   33   35 1    
    68   35   36 1    
    69   35   37 1    
    70   35   97 1    
    71   36   98 1    
    72   36   99 1    
    73   36  100 1    
    74   37   38 am   BACKBONE|DICT|INTERRES
    75   37  101 1    
    76   38   39 2    
    77   38   40 1    
    78   40   41 1    
    79   40   42 1    
    80   40  102 1    
    81   41  103 1    
    82   41  104 1    
    83   41  105 1    
    84   42   43 am   BACKBONE|DICT|INTERRES
    85   42  106 1    
    86   43   44 2    
    87   43   45 1    
    88   45   46 1    
    89   45   49 1    
    90   45  107 1    
    91   46   47 1    
    92   46  108 1    
    93   46  109 1    
    94   47   48 1    
    95   48  110 1    
    96   48  111 1    
    97   49   50 am   BACKBONE|DICT|INTERRES
    98   49  112 1    
    99   50   51 2    
   100   50   52 1    
   101   52   53 1    
   102   52   54 1    
   103   52  113 1    
   104   53  114 1    
   105   53  115 1    
   106   53  116 1    
   107   54   55 am   BACKBONE|DICT|INTERRES
   108   54  117 1    
   109   55   56 2    
   110   55   57 1    
   111   57   58 1    
   112   57   59 1    
   113   57  118 1    
   114   58  119 1    
   115   58  120 1    
   116   58  121 1    
   117   59   60 am   BACKBONE|DICT|INTERRES
   118   59  122 1    
   119   60   61 2    
   120   60   62 1    
   121   62   63 1    
   122   62   64 1    
   123   62  123 1    
   124   63  124 1    
   125   63  125 1    
   126   63  126 1    
   127   64   65 am   BACKBONE|DICT|INTERRES
   128   64  127 1    
   129   65   66 2    
@<TRIPOS>SUBSTRUCTURE
     1 UNK         1 GROUP             0       ****    0 ROOT    
