@<TRIPOS>MOLECULE
3R134
127   129    1
SMALL
USER_CHARGES


@<TRIPOS>ATOM
      1 CA         34.7541  -46.8399  -58.1956 C.3       0 UNK        -0.1968 
      2 C          34.3959  -46.9476  -56.7216 C.2       0 UNK         0.4852 
      3 O          34.0501  -48.0355  -56.2615 O.2       0 UNK        -0.5359 
      4 N          34.5027  -45.8344  -55.9811 N.am      1 UNK        -0.4300 
      5 CA         34.1347  -45.6668  -54.5648 C.3       1 UNK         0.0863 
      6 C6         34.4978  -44.2505  -54.0551 C.3       11 UNK        -0.0953 
      7 S7         33.7068  -42.9196  -55.0199 S.3       11 UNK        -0.2369 
      8 C8         32.9779  -41.8926  -53.7070 C.3       11 UNK         0.0226 
      9 C9         31.6354  -42.4333  -53.2383 C.ar      11 UNK        -0.0699 
     10 C10        31.5535  -43.2792  -52.1271 C.ar      11 UNK        -0.0804 
     11 C11        30.3126  -43.7413  -51.6776 C.ar      11 UNK        -0.0871 
     12 C12        29.1494  -43.3371  -52.3386 C.ar      11 UNK        -0.1008 
     13 C13        29.2208  -42.5152  -53.4655 C.ar      11 UNK        -0.0735 
     14 C14        30.4662  -42.0627  -53.9089 C.ar      11 UNK        -0.0945 
     15 C15        27.9486  -42.1244  -54.2024 C.3       11 UNK         0.0169 
     16 S16        27.1746  -43.5655  -55.0004 S.3       11 UNK        -0.2669 
     17 C17        28.4219  -44.0113  -56.2605 C.3       11 UNK        -0.0850 
     18 CA         27.8029  -44.1311  -57.6756 C.3       10 UNK         0.0855 
     19 C          28.9021  -44.3140  -58.7647 C.2       10 UNK         0.5543 
     20 N          28.8811  -45.3612  -59.5815 N.am      10 UNK        -0.7343 
     21 O          29.7907  -43.4737  -58.8802 O.2       10 UNK        -0.5027 
     22 N          26.7422  -45.1492  -57.7110 N.am      10 UNK        -0.4495 
     23 C          25.7184  -45.1521  -58.5734 C.2       10 UNK         0.4903 
     24 O          25.5043  -44.2477  -59.3825 O.2       10 UNK        -0.4860 
     25 CA         24.7848  -46.3798  -58.5274 C.3       9 UNK         0.0227 
     26 CB         23.9705  -46.5578  -59.8263 C.3       9 UNK        -0.1964 
     27 N          25.4743  -47.6301  -58.1784 N.am      9 UNK        -0.4231 
     28 C          26.5202  -48.1846  -58.8151 C.2       9 UNK         0.5014 
     29 O          27.0446  -47.6868  -59.8127 O.2       9 UNK        -0.5270 
     30 CA         27.1021  -49.4892  -58.2390 C.3       8 UNK         0.0284 
     31 CB         28.6406  -49.4846  -58.2666 C.3       8 UNK        -0.1977 
     32 N          26.6536  -49.7268  -56.8648 N.am      8 UNK        -0.4342 
     33 C          25.7558  -50.6519  -56.4956 C.2       8 UNK         0.5039 
     34 O          25.2665  -51.4780  -57.2666 O.2       8 UNK        -0.5547 
     35 CA         25.2957  -50.6447  -55.0233 C.3       7 UNK         0.0281 
     36 CB         26.0771  -51.6915  -54.2127 C.3       7 UNK        -0.1963 
     37 N          25.4170  -49.3391  -54.3661 N.am      7 UNK        -0.4444 
     38 C          24.7973  -48.2143  -54.7514 C.2       7 UNK         0.5104 
     39 O          23.9830  -48.1666  -55.6728 O.2       7 UNK        -0.5100 
     40 CA         25.2071  -46.9091  -54.0452 C.3       6 UNK         0.0396 
     41 CB         24.1765  -46.5324  -52.9703 C.3       6 UNK        -0.1801 
     42 N          26.5473  -46.9358  -53.4442 N.am      6 UNK        -0.4747 
     43 C          27.6996  -47.1341  -54.1048 C.2       6 UNK         0.5012 
     44 O          27.7408  -47.3852  -55.3133 O.2       6 UNK        -0.5003 
     45 CA         29.0118  -47.0754  -53.2908 C.3       5 UNK         0.0782 
     46 C46        28.8132  -46.7516  -51.7831 C.3       11 UNK        -0.0868 
     47 S47        30.3987  -46.4190  -50.9410 S.3       11 UNK        -0.2515 
     48 C48        30.2287  -44.6655  -50.4711 C.3       11 UNK         0.0199 
     49 N          29.7002  -48.3555  -53.4615 N.am      5 UNK        -0.4607 
     50 C          30.7281  -48.5829  -54.2837 C.2       4 UNK         0.5031 
     51 O          31.2532  -47.7274  -54.9957 O.2       4 UNK        -0.5119 
     52 CA         31.2126  -50.0358  -54.3369 C.3       4 UNK         0.0263 
     53 CB         30.3867  -50.8454  -55.3540 C.3       4 UNK        -0.1967 
     54 N          32.6321  -50.1046  -54.6806 N.am      4 UNK        -0.4237 
     55 C          33.4088  -51.1720  -54.4458 C.2       3 UNK         0.4908 
     56 O          33.0137  -52.1942  -53.8828 O.2       3 UNK        -0.5102 
     57 CA         34.8702  -51.1033  -54.9067 C.3       3 UNK         0.0241 
     58 CB         34.9779  -51.3246  -56.4252 C.3       3 UNK        -0.1971 
     59 N          35.4780  -49.8246  -54.5457 N.am      3 UNK        -0.4139 
     60 C          36.1680  -49.6044  -53.4178 C.2       2 UNK         0.5016 
     61 O          36.3997  -50.4738  -52.5763 O.2       2 UNK        -0.5319 
     62 CA         36.7120  -48.1831  -53.1819 C.3       2 UNK         0.0286 
     63 CB         38.2024  -48.1108  -53.5523 C.3       2 UNK        -0.1963 
     64 N          35.9874  -47.1489  -53.9231 N.am      2 UNK        -0.4790 
     65 C          34.7540  -46.7190  -53.6199 C.2       1 UNK         0.5024 
     66 O          34.1145  -47.1174  -52.6464 O.2       1 UNK        -0.4888 
     67 H67        35.5682  -47.5236  -58.4341 H         1 UNK         0.0892 
     68 H68        33.8936  -47.1079  -58.8081 H         1 UNK         0.0892 
     69 H69        35.0647  -45.8317  -58.4689 H         1 UNK         0.0892 
     70 H70        34.7934  -44.9800  -56.4350 H         1 UNK         0.3107 
     71 H71        33.0510  -45.7848  -54.5035 H         1 UNK         0.0773 
     72 H72        34.2227  -44.1457  -53.0050 H         1 UNK         0.0680 
     73 H73        35.5775  -44.0936  -54.0968 H         1 UNK         0.0680 
     74 H74        32.8467  -40.8807  -54.0934 H         1 UNK         0.0650 
     75 H75        33.6736  -41.8047  -52.8710 H         1 UNK         0.0650 
     76 H76        32.4531  -43.5750  -51.6056 H         1 UNK         0.1397 
     77 H77        28.1818  -43.6713  -51.9917 H         1 UNK         0.1363 
     78 H78        30.5287  -41.4181  -54.7752 H         1 UNK         0.1355 
     79 H79        28.1451  -41.3565  -54.9523 H         1 UNK         0.0707 
     80 H80        27.2422  -41.6899  -53.4937 H         1 UNK         0.0707 
     81 H81        29.2136  -43.2603  -56.2600 H         1 UNK         0.1034 
     82 H82        28.9009  -44.9476  -55.9698 H         1 UNK         0.1034 
     83 H83        27.3406  -43.1672  -57.8981 H         1 UNK         0.0482 
     84 H84        28.1477  -46.0605  -59.5299 H         1 UNK         0.3460 
     85 H85        29.6009  -45.4485  -60.2805 H         1 UNK         0.3460 
     86 H86        26.8598  -45.9313  -57.0815 H         1 UNK         0.2989 
     87 H87        24.0777  -46.1883  -57.7191 H         1 UNK         0.0559 
     88 H88        23.3500  -45.6830  -60.0242 H         1 UNK         0.0848 
     89 H89        23.3030  -47.4171  -59.7617 H         1 UNK         0.0848 
     90 H90        24.6178  -46.6999  -60.6923 H         1 UNK         0.0848 
     91 H91        25.0989  -48.1058  -57.3642 H         1 UNK         0.3144 
     92 H92        26.7609  -50.2909  -58.8969 H         1 UNK         0.0727 
     93 H93        29.0570  -48.7394  -57.5869 H         1 UNK         0.0790 
     94 H94        29.0246  -49.2705  -59.2648 H         1 UNK         0.0790 
     95 H95        29.0296  -50.4619  -57.9854 H         1 UNK         0.0790 
     96 H96        26.9958  -49.0660  -56.1724 H         1 UNK         0.3215 
     97 H97        24.2389  -50.9204  -55.0139 H         1 UNK         0.0863 
     98 H98        25.6980  -51.7697  -53.1936 H         1 UNK         0.0808 
     99 H99        27.1399  -51.4532  -54.1600 H         1 UNK         0.0808 
    100 H100       25.9880  -52.6804  -54.6649 H         1 UNK         0.0808 
    101 H101       26.0617  -49.2763  -53.5924 H         1 UNK         0.3118 
    102 H102       25.2083  -46.1230  -54.8034 H         1 UNK         0.0546 
    103 H103       24.1498  -47.2629  -52.1608 H         1 UNK         0.0828 
    104 H104       23.1724  -46.4789  -53.3939 H         1 UNK         0.0828 
    105 H105       24.3935  -45.5558  -52.5372 H         1 UNK         0.0828 
    106 H106       26.5890  -46.7491  -52.4529 H         1 UNK         0.3005 
    107 H107       29.6017  -46.2686  -53.7337 H         1 UNK         0.1257 
    108 H108       28.1600  -45.8917  -51.6414 H         1 UNK         0.0775 
    109 H109       28.3290  -47.5839  -51.2688 H         1 UNK         0.0775 
    110 H110       29.2897  -44.5161  -49.9357 H         1 UNK         0.0840 
    111 H111       31.0199  -44.4158  -49.7624 H         1 UNK         0.0840 
    112 H112       29.3255  -49.1290  -52.9325 H         1 UNK         0.2987 
    113 H113       31.0759  -50.4660  -53.3422 H         1 UNK         0.0785 
    114 H114       29.3157  -50.6844  -55.2256 H         1 UNK         0.0798 
    115 H115       30.5669  -51.9155  -55.2525 H         1 UNK         0.0798 
    116 H116       30.6446  -50.5611  -56.3734 H         1 UNK         0.0798 
    117 H117       33.0118  -49.2826  -55.1495 H         1 UNK         0.3079 
    118 H118       35.4126  -51.9163  -54.4188 H         1 UNK         0.0794 
    119 H119       36.0173  -51.3136  -56.7532 H         1 UNK         0.0786 
    120 H120       34.4411  -50.5622  -56.9904 H         1 UNK         0.0786 
    121 H121       34.5593  -52.2917  -56.7067 H         1 UNK         0.0786 
    122 H122       35.2552  -49.0389  -55.1504 H         1 UNK         0.3032 
    123 H123       36.6135  -47.9732  -52.1141 H         1 UNK         0.1094 
    124 H124       38.3655  -48.3047  -54.6132 H         1 UNK         0.0794 
    125 H125       38.6230  -47.1322  -53.3196 H         1 UNK         0.0794 
    126 H126       38.7793  -48.8497  -52.9940 H         1 UNK         0.0794 
    127 H127       36.4401  -46.7671  -54.7413 H         1 UNK         0.3016 
@<TRIPOS>BOND
     1    1    2 1    
     2    1   67 1    
     3    1   68 1    
     4    1   69 1    
     5    2    3 2    
     6    2    4 am   BACKBONE|DICT|INTERRES
     7    4    5 1    
     8    4   70 1    
     9    5    6 1    
    10    5   65 1    
    11    5   71 1    
    12    6    7 1    
    13    6   72 1    
    14    6   73 1    
    15    7    8 1    
    16    8    9 1    
    17    8   74 1    
    18    8   75 1    
    19    9   10 ar   
    20    9   14 ar   
    21   10   11 ar   
    22   10   76 1    
    23   11   12 ar   
    24   11   48 1    
    25   12   13 ar   
    26   12   77 1    
    27   13   14 ar   
    28   13   15 1    
    29   14   78 1    
    30   15   16 1    
    31   15   79 1    
    32   15   80 1    
    33   16   17 1    
    34   17   18 1    
    35   17   81 1    
    36   17   82 1    
    37   18   19 1    
    38   18   22 1    
    39   18   83 1    
    40   19   20 am   BACKBONE|DICT|INTERRES
    41   19   21 2    
    42   20   84 1    
    43   20   85 1    
    44   22   23 am   BACKBONE|DICT|INTERRES
    45   22   86 1    
    46   23   24 2    
    47   23   25 1    
    48   25   26 1    
    49   25   27 1    
    50   25   87 1    
    51   26   88 1    
    52   26   89 1    
    53   26   90 1    
    54   27   28 am   BACKBONE|DICT|INTERRES
    55   27   91 1    
    56   28   29 2    
    57   28   30 1    
    58   30   31 1    
    59   30   32 1    
    60   30   92 1    
    61   31   93 1    
    62   31   94 1    
    63   31   95 1    
    64   32   33 am   BACKBONE|DICT|INTERRES
    65   32   96 1    
    66   33   34 2    
    67   33   35 1    
    68   35   36 1    
    69   35   37 1    
    70   35   97 1    
    71   36   98 1    
    72   36   99 1    
    73   36  100 1    
    74   37   38 am   BACKBONE|DICT|INTERRES
    75   37  101 1    
    76   38   39 2    
    77   38   40 1    
    78   40   41 1    
    79   40   42 1    
    80   40  102 1    
    81   41  103 1    
    82   41  104 1    
    83   41  105 1    
    84   42   43 am   BACKBONE|DICT|INTERRES
    85   42  106 1    
    86   43   44 2    
    87   43   45 1    
    88   45   46 1    
    89   45   49 1    
    90   45  107 1    
    91   46   47 1    
    92   46  108 1    
    93   46  109 1    
    94   47   48 1    
    95   48  110 1    
    96   48  111 1    
    97   49   50 am   BACKBONE|DICT|INTERRES
    98   49  112 1    
    99   50   51 2    
   100   50   52 1    
   101   52   53 1    
   102   52   54 1    
   103   52  113 1    
   104   53  114 1    
   105   53  115 1    
   106   53  116 1    
   107   54   55 am   BACKBONE|DICT|INTERRES
   108   54  117 1    
   109   55   56 2    
   110   55   57 1    
   111   57   58 1    
   112   57   59 1    
   113   57  118 1    
   114   58  119 1    
   115   58  120 1    
   116   58  121 1    
   117   59   60 am   BACKBONE|DICT|INTERRES
   118   59  122 1    
   119   60   61 2    
   120   60   62 1    
   121   62   63 1    
   122   62   64 1    
   123   62  123 1    
   124   63  124 1    
   125   63  125 1    
   126   63  126 1    
   127   64   65 am   BACKBONE|DICT|INTERRES
   128   64  127 1    
   129   65   66 2    
@<TRIPOS>SUBSTRUCTURE
     1 UNK         1 GROUP             0       ****    0 ROOT    
