@<TRIPOS>MOLECULE
3R134
127   129    1
SMALL
USER_CHARGES


@<TRIPOS>ATOM
      1 CA         33.5075  -46.9990  -51.4563 C.3       0 UNK        -0.1968 
      2 C          33.6694  -47.1109  -52.9641 C.2       0 UNK         0.4852 
      3 O          32.8685  -47.7848  -53.6113 O.2       0 UNK        -0.5359 
      4 N          34.6996  -46.4630  -53.5266 N.am      1 UNK        -0.4300 
      5 CA         35.0188  -46.4078  -54.9596 C.3       1 UNK         0.0863 
      6 C6         33.9803  -45.5957  -55.7825 C.3       11 UNK        -0.0953 
      7 S7         33.9746  -43.8338  -55.3207 S.3       11 UNK        -0.2369 
      8 C8         32.4305  -43.2759  -56.1202 C.3       11 UNK         0.0226 
      9 C9         31.3468  -42.7591  -55.1723 C.ar      11 UNK        -0.0699 
     10 C10        31.3095  -43.0731  -53.8055 C.ar      11 UNK        -0.0804 
     11 C11        30.2837  -42.5823  -52.9894 C.ar      11 UNK        -0.0871 
     12 C12        29.2904  -41.7717  -53.5427 C.ar      11 UNK        -0.1008 
     13 C13        29.3020  -41.4690  -54.9042 C.ar      11 UNK        -0.0735 
     14 C14        30.3337  -41.9589  -55.7095 C.ar      11 UNK        -0.0945 
     15 C15        28.1737  -40.6521  -55.5157 C.3       11 UNK         0.0169 
     16 S16        26.5631  -41.5169  -55.4699 S.3       11 UNK        -0.2669 
     17 C17        26.9624  -43.2263  -55.9882 C.3       11 UNK        -0.0850 
     18 CA         26.6687  -43.5447  -57.4755 C.3       10 UNK         0.0855 
     19 C          27.7316  -42.9303  -58.4396 C.2       10 UNK         0.5543 
     20 N          28.6182  -43.7103  -59.0484 N.am      10 UNK        -0.7343 
     21 O          27.7336  -41.7248  -58.6704 O.2       10 UNK        -0.5027 
     22 N          26.4728  -44.9915  -57.6407 N.am      10 UNK        -0.4495 
     23 C          25.9314  -45.5672  -58.7211 C.2       10 UNK         0.4903 
     24 O          25.4141  -44.9360  -59.6444 O.2       10 UNK        -0.4860 
     25 CA         25.9878  -47.1057  -58.7778 C.3       9 UNK         0.0227 
     26 CB         25.8299  -47.6559  -60.2110 C.3       9 UNK        -0.1964 
     27 N          27.1834  -47.6727  -58.1396 N.am      9 UNK        -0.4231 
     28 C          28.4711  -47.4452  -58.4521 C.2       9 UNK         0.5014 
     29 O          28.8276  -46.6525  -59.3245 O.2       9 UNK        -0.5270 
     30 CA         29.5581  -48.1932  -57.6501 C.3       8 UNK         0.0284 
     31 CB         30.4561  -47.1946  -56.8967 C.3       8 UNK        -0.1977 
     32 N          29.0236  -49.1593  -56.6890 N.am      8 UNK        -0.4342 
     33 C          28.4361  -50.3261  -56.9852 C.2       8 UNK         0.5039 
     34 O          28.3756  -50.7981  -58.1203 O.2       8 UNK        -0.5547 
     35 CA         27.7348  -51.0478  -55.8214 C.3       7 UNK         0.0281 
     36 CB         28.7017  -52.0035  -55.1023 C.3       7 UNK        -0.1963 
     37 N          27.1467  -50.1060  -54.8587 N.am      7 UNK        -0.4444 
     38 C          26.0859  -49.3241  -55.1122 C.2       7 UNK         0.5104 
     39 O          25.4677  -49.3425  -56.1756 O.2       7 UNK        -0.5100 
     40 CA         25.6642  -48.3279  -54.0174 C.3       6 UNK         0.0396 
     41 CB         24.7575  -49.0143  -52.9841 C.3       6 UNK        -0.1801 
     42 N          26.8074  -47.7156  -53.3373 N.am      6 UNK        -0.4747 
     43 C          27.6223  -46.7999  -53.8841 C.2       6 UNK         0.5012 
     44 O          27.4570  -46.3219  -55.0084 O.2       6 UNK        -0.5003 
     45 CA         28.8632  -46.4016  -53.0529 C.3       5 UNK         0.0782 
     46 C46        28.5735  -45.1872  -52.1358 C.3       11 UNK        -0.0868 
     47 S47        30.0642  -44.7060  -51.1859 S.3       11 UNK        -0.2515 
     48 C48        30.2336  -42.9214  -51.5065 C.3       11 UNK         0.0199 
     49 N          29.4207  -47.5252  -52.2856 N.am      5 UNK        -0.4607 
     50 C          29.8977  -48.6541  -52.8149 C.2       4 UNK         0.5031 
     51 O          29.8012  -48.9452  -54.0090 O.2       4 UNK        -0.5119 
     52 CA         30.5682  -49.6373  -51.8542 C.3       4 UNK         0.0263 
     53 CB         29.5342  -50.5739  -51.2067 C.3       4 UNK        -0.1967 
     54 N          31.5142  -50.4122  -52.6426 N.am      4 UNK        -0.4237 
     55 C          32.6855  -50.9011  -52.2272 C.2       3 UNK         0.4908 
     56 O          33.0916  -50.8450  -51.0662 O.2       3 UNK        -0.5102 
     57 CA         33.5541  -51.5466  -53.3106 C.3       3 UNK         0.0241 
     58 CB         32.9574  -52.9199  -53.6962 C.3       3 UNK        -0.1971 
     59 N          33.6616  -50.6399  -54.4605 N.am      3 UNK        -0.4139 
     60 C          34.3343  -50.8757  -55.5962 C.2       2 UNK         0.5016 
     61 O          34.9852  -51.8974  -55.8175 O.2       2 UNK        -0.5319 
     62 CA         34.2759  -49.7869  -56.6820 C.3       2 UNK         0.0286 
     63 CB         33.0434  -49.9968  -57.5780 C.3       2 UNK        -0.1963 
     64 N          34.2478  -48.4289  -56.1379 N.am      2 UNK        -0.4790 
     65 C          35.2752  -47.8215  -55.5272 C.2       1 UNK         0.5024 
     66 O          36.3885  -48.3316  -55.3930 O.2       1 UNK        -0.4888 
     67 H67        34.2413  -46.3251  -51.0150 H         1 UNK         0.0892 
     68 H68        32.5139  -46.6223  -51.2165 H         1 UNK         0.0892 
     69 H69        33.6213  -47.9791  -50.9941 H         1 UNK         0.0892 
     70 H70        35.3366  -45.9511  -52.9327 H         1 UNK         0.3107 
     71 H71        35.9744  -45.8862  -55.0362 H         1 UNK         0.0773 
     72 H72        32.9741  -45.9945  -55.6459 H         1 UNK         0.0680 
     73 H73        34.2006  -45.6531  -56.8503 H         1 UNK         0.0680 
     74 H74        32.0064  -44.0800  -56.7230 H         1 UNK         0.0650 
     75 H75        32.6984  -42.4834  -56.8207 H         1 UNK         0.0650 
     76 H76        32.0661  -43.7082  -53.3668 H         1 UNK         0.1397 
     77 H77        28.4868  -41.3971  -52.9230 H         1 UNK         0.1363 
     78 H78        30.3374  -41.7311  -56.7672 H         1 UNK         0.1355 
     79 H79        28.0804  -39.7101  -54.9738 H         1 UNK         0.0707 
     80 H80        28.4077  -40.3816  -56.5454 H         1 UNK         0.0707 
     81 H81        27.9810  -43.5125  -55.7279 H         1 UNK         0.1034 
     82 H82        26.3352  -43.8597  -55.3588 H         1 UNK         0.1034 
     83 H83        25.7170  -43.0744  -57.7303 H         1 UNK         0.0482 
     84 H84        28.5943  -44.7197  -58.9499 H         1 UNK         0.3460 
     85 H85        29.2809  -43.2909  -59.6799 H         1 UNK         0.3460 
     86 H86        26.8675  -45.5817  -56.9164 H         1 UNK         0.2989 
     87 H87        25.1368  -47.4586  -58.1942 H         1 UNK         0.0559 
     88 H88        24.8773  -47.3517  -60.6463 H         1 UNK         0.0848 
     89 H89        25.8555  -48.7455  -60.2220 H         1 UNK         0.0848 
     90 H90        26.6194  -47.2948  -60.8711 H         1 UNK         0.0848 
     91 H91        26.9907  -48.3236  -57.3884 H         1 UNK         0.3144 
     92 H92        30.1742  -48.7384  -58.3678 H         1 UNK         0.0727 
     93 H93        29.8742  -46.5408  -56.2470 H         1 UNK         0.0790 
     94 H94        31.0013  -46.5565  -57.5933 H         1 UNK         0.0790 
     95 H95        31.1915  -47.7059  -56.2761 H         1 UNK         0.0790 
     96 H96        29.1111  -48.9137  -55.7039 H         1 UNK         0.3215 
     97 H97        26.9235  -51.6440  -56.2454 H         1 UNK         0.0863 
     98 H98        28.2013  -52.5465  -54.3004 H         1 UNK         0.0808 
     99 H99        29.5536  -51.4786  -54.6724 H         1 UNK         0.0808 
    100 H100       29.0981  -52.7460  -55.7962 H         1 UNK         0.0808 
    101 H101       27.6413  -49.9782  -53.9882 H         1 UNK         0.3118 
    102 H102       25.0883  -47.5329  -54.4963 H         1 UNK         0.0546 
    103 H103       25.2775  -49.8110  -52.4508 H         1 UNK         0.0828 
    104 H104       23.8863  -49.4601  -53.4662 H         1 UNK         0.0828 
    105 H105       24.3872  -48.3021  -52.2465 H         1 UNK         0.0828 
    106 H106       27.0233  -48.0491  -52.4088 H         1 UNK         0.3005 
    107 H107       29.6298  -46.1007  -53.7714 H         1 UNK         0.1257 
    108 H108       27.7789  -45.4210  -51.4248 H         1 UNK         0.0775 
    109 H109       28.2137  -44.3420  -52.7245 H         1 UNK         0.0775 
    110 H110       29.4105  -42.4009  -51.0142 H         1 UNK         0.0840 
    111 H111       31.1474  -42.5638  -51.0302 H         1 UNK         0.0840 
    112 H112       29.5407  -47.3573  -51.2972 H         1 UNK         0.2987 
    113 H113       31.1012  -49.0738  -51.0855 H         1 UNK         0.0785 
    114 H114       28.8079  -50.0118  -50.6186 H         1 UNK         0.0798 
    115 H115       30.0146  -51.2843  -50.5336 H         1 UNK         0.0798 
    116 H116       28.9823  -51.1453  -51.9540 H         1 UNK         0.0798 
    117 H117       31.2859  -50.4342  -53.6283 H         1 UNK         0.3079 
    118 H118       34.5543  -51.6946  -52.8989 H         1 UNK         0.0794 
    119 H119       33.6441  -53.5049  -54.3070 H         1 UNK         0.0786 
    120 H120       32.0237  -52.8160  -54.2500 H         1 UNK         0.0786 
    121 H121       32.7452  -53.5179  -52.8086 H         1 UNK         0.0786 
    122 H122       33.2448  -49.7205  -54.3344 H         1 UNK         0.3032 
    123 H123       35.1720  -49.8867  -57.2990 H         1 UNK         0.1094 
    124 H124       32.1140  -49.9363  -57.0101 H         1 UNK         0.0794 
    125 H125       32.9993  -49.2563  -58.3769 H         1 UNK         0.0794 
    126 H126       33.0697  -50.9798  -58.0502 H         1 UNK         0.0794 
    127 H127       33.3562  -47.9555  -56.1361 H         1 UNK         0.3016 
@<TRIPOS>BOND
     1    1    2 1    
     2    1   67 1    
     3    1   68 1    
     4    1   69 1    
     5    2    3 2    
     6    2    4 am   BACKBONE|DICT|INTERRES
     7    4    5 1    
     8    4   70 1    
     9    5    6 1    
    10    5   65 1    
    11    5   71 1    
    12    6    7 1    
    13    6   72 1    
    14    6   73 1    
    15    7    8 1    
    16    8    9 1    
    17    8   74 1    
    18    8   75 1    
    19    9   10 ar   
    20    9   14 ar   
    21   10   11 ar   
    22   10   76 1    
    23   11   12 ar   
    24   11   48 1    
    25   12   13 ar   
    26   12   77 1    
    27   13   14 ar   
    28   13   15 1    
    29   14   78 1    
    30   15   16 1    
    31   15   79 1    
    32   15   80 1    
    33   16   17 1    
    34   17   18 1    
    35   17   81 1    
    36   17   82 1    
    37   18   19 1    
    38   18   22 1    
    39   18   83 1    
    40   19   20 am   BACKBONE|DICT|INTERRES
    41   19   21 2    
    42   20   84 1    
    43   20   85 1    
    44   22   23 am   BACKBONE|DICT|INTERRES
    45   22   86 1    
    46   23   24 2    
    47   23   25 1    
    48   25   26 1    
    49   25   27 1    
    50   25   87 1    
    51   26   88 1    
    52   26   89 1    
    53   26   90 1    
    54   27   28 am   BACKBONE|DICT|INTERRES
    55   27   91 1    
    56   28   29 2    
    57   28   30 1    
    58   30   31 1    
    59   30   32 1    
    60   30   92 1    
    61   31   93 1    
    62   31   94 1    
    63   31   95 1    
    64   32   33 am   BACKBONE|DICT|INTERRES
    65   32   96 1    
    66   33   34 2    
    67   33   35 1    
    68   35   36 1    
    69   35   37 1    
    70   35   97 1    
    71   36   98 1    
    72   36   99 1    
    73   36  100 1    
    74   37   38 am   BACKBONE|DICT|INTERRES
    75   37  101 1    
    76   38   39 2    
    77   38   40 1    
    78   40   41 1    
    79   40   42 1    
    80   40  102 1    
    81   41  103 1    
    82   41  104 1    
    83   41  105 1    
    84   42   43 am   BACKBONE|DICT|INTERRES
    85   42  106 1    
    86   43   44 2    
    87   43   45 1    
    88   45   46 1    
    89   45   49 1    
    90   45  107 1    
    91   46   47 1    
    92   46  108 1    
    93   46  109 1    
    94   47   48 1    
    95   48  110 1    
    96   48  111 1    
    97   49   50 am   BACKBONE|DICT|INTERRES
    98   49  112 1    
    99   50   51 2    
   100   50   52 1    
   101   52   53 1    
   102   52   54 1    
   103   52  113 1    
   104   53  114 1    
   105   53  115 1    
   106   53  116 1    
   107   54   55 am   BACKBONE|DICT|INTERRES
   108   54  117 1    
   109   55   56 2    
   110   55   57 1    
   111   57   58 1    
   112   57   59 1    
   113   57  118 1    
   114   58  119 1    
   115   58  120 1    
   116   58  121 1    
   117   59   60 am   BACKBONE|DICT|INTERRES
   118   59  122 1    
   119   60   61 2    
   120   60   62 1    
   121   62   63 1    
   122   62   64 1    
   123   62  123 1    
   124   63  124 1    
   125   63  125 1    
   126   63  126 1    
   127   64   65 am   BACKBONE|DICT|INTERRES
   128   64  127 1    
   129   65   66 2    
@<TRIPOS>SUBSTRUCTURE
     1 UNK         1 GROUP             0       ****    0 ROOT    
