@<TRIPOS>MOLECULE
3R134
127   129    1
SMALL
USER_CHARGES


@<TRIPOS>ATOM
      1 CA         32.8189  -47.5760  -50.4284 C.3       0 UNK        -0.1968 
      2 C          33.9570  -46.9959  -51.2538 C.2       0 UNK         0.4852 
      3 O          35.0909  -47.4659  -51.1517 O.2       0 UNK        -0.5359 
      4 N          33.6641  -45.9757  -52.0700 N.am      1 UNK        -0.4300 
      5 CA         34.6515  -45.1899  -52.8224 C.3       1 UNK         0.0863 
      6 C6         34.0435  -43.8853  -53.3888 C.3       11 UNK        -0.0953 
      7 S7         33.3528  -42.8399  -52.0617 S.3       11 UNK        -0.2369 
      8 C8         31.9356  -42.0552  -52.8889 C.3       11 UNK         0.0226 
      9 C9         30.8304  -43.0423  -53.2420 C.ar      11 UNK        -0.0699 
     10 C10        30.0826  -43.6615  -52.2352 C.ar      11 UNK        -0.0804 
     11 C11        29.0228  -44.5155  -52.5593 C.ar      11 UNK        -0.0871 
     12 C12        28.7109  -44.7416  -53.9047 C.ar      11 UNK        -0.1008 
     13 C13        29.4650  -44.1458  -54.9198 C.ar      11 UNK        -0.0735 
     14 C14        30.5243  -43.2997  -54.5812 C.ar      11 UNK        -0.0945 
     15 C15        29.1379  -44.3956  -56.3848 C.3       11 UNK         0.0169 
     16 S16        28.1125  -43.0488  -57.0534 S.3       11 UNK        -0.2669 
     17 C17        28.6561  -42.9818  -58.7977 C.3       11 UNK        -0.0850 
     18 CA         27.4637  -42.9763  -59.7976 C.3       10 UNK         0.0855 
     19 C          27.8937  -42.6110  -61.2528 C.2       10 UNK         0.5543 
     20 N          27.2186  -43.1074  -62.2827 N.am      10 UNK        -0.7343 
     21 O          28.8297  -41.8409  -61.4562 O.2       10 UNK        -0.5027 
     22 N          26.6191  -44.1792  -59.6838 N.am      10 UNK        -0.4495 
     23 C          26.9732  -45.4366  -59.9762 C.2       10 UNK         0.4903 
     24 O          28.0858  -45.7626  -60.3934 O.2       10 UNK        -0.4860 
     25 CA         25.8941  -46.5082  -59.7327 C.3       9 UNK         0.0227 
     26 CB         26.2249  -47.8416  -60.4274 C.3       9 UNK        -0.1964 
     27 N          25.7080  -46.7418  -58.2993 N.am      9 UNK        -0.4231 
     28 C          25.0602  -45.9171  -57.4614 C.2       9 UNK         0.5014 
     29 O          24.4689  -44.9013  -57.8363 O.2       9 UNK        -0.5270 
     30 CA         25.1065  -46.2641  -55.9607 C.3       8 UNK         0.0284 
     31 CB         23.9770  -45.6020  -55.1431 C.3       8 UNK        -0.1977 
     32 N          25.1871  -47.7056  -55.7016 N.am      8 UNK        -0.4342 
     33 C          24.2650  -48.6422  -55.9771 C.2       8 UNK         0.5039 
     34 O          23.1523  -48.3912  -56.4432 O.2       8 UNK        -0.5547 
     35 CA         24.6529  -50.1099  -55.6830 C.3       7 UNK         0.0281 
     36 CB         23.9007  -51.1114  -56.5860 C.3       7 UNK        -0.1963 
     37 N          26.1016  -50.3641  -55.7231 N.am      7 UNK        -0.4444 
     38 C          26.9257  -50.1746  -56.7654 C.2       7 UNK         0.5104 
     39 O          26.5519  -49.7799  -57.8696 O.2       7 UNK        -0.5100 
     40 CA         28.4285  -50.3914  -56.4890 C.3       6 UNK         0.0396 
     41 CB         29.3211  -49.8378  -57.6204 C.3       6 UNK        -0.1801 
     42 N          28.8641  -49.8467  -55.1929 N.am      6 UNK        -0.4747 
     43 C          28.7062  -48.5850  -54.7554 C.2       6 UNK         0.5012 
     44 O          28.0927  -47.7252  -55.3868 O.2       6 UNK        -0.5003 
     45 CA         29.2881  -48.2126  -53.3758 C.3       5 UNK         0.0782 
     46 C46        28.1603  -47.8273  -52.3866 C.3       11 UNK        -0.0868 
     47 S47        28.8018  -46.8209  -51.0083 S.3       11 UNK        -0.2515 
     48 C48        28.1950  -45.1590  -51.4532 C.3       11 UNK         0.0199 
     49 N          30.1482  -49.2729  -52.8334 N.am      5 UNK        -0.4607 
     50 C          31.4453  -49.3984  -53.1270 C.2       4 UNK         0.5031 
     51 O          32.0759  -48.5846  -53.8120 O.2       4 UNK        -0.5119 
     52 CA         32.1587  -50.6385  -52.5686 C.3       4 UNK         0.0263 
     53 CB         31.7530  -51.9068  -53.3438 C.3       4 UNK        -0.1967 
     54 N          33.5790  -50.3789  -52.7248 N.am      4 UNK        -0.4237 
     55 C          34.6367  -51.0362  -52.2435 C.2       3 UNK         0.4908 
     56 O          34.5579  -52.0467  -51.5439 O.2       3 UNK        -0.5102 
     57 CA         36.0197  -50.4322  -52.5760 C.3       3 UNK         0.0241 
     58 CB         37.0358  -51.4980  -53.0374 C.3       3 UNK        -0.1971 
     59 N          35.9431  -49.2915  -53.5080 N.am      3 UNK        -0.4139 
     60 C          35.6255  -49.3067  -54.8150 C.2       2 UNK         0.5016 
     61 O          35.5234  -50.3361  -55.4827 O.2       2 UNK        -0.5319 
     62 CA         35.2848  -47.9486  -55.4616 C.3       2 UNK         0.0286 
     63 CB         34.2833  -48.0956  -56.6236 C.3       2 UNK        -0.1963 
     64 N          34.7157  -47.0232  -54.4749 N.am      2 UNK        -0.4790 
     65 C          35.3711  -45.9892  -53.9289 C.2       1 UNK         0.5024 
     66 O          36.5185  -45.6718  -54.2441 O.2       1 UNK        -0.4888 
     67 H67        32.9022  -48.6604  -50.3735 H         1 UNK         0.0892 
     68 H68        32.8581  -47.1832  -49.4128 H         1 UNK         0.0892 
     69 H69        31.8462  -47.3286  -50.8527 H         1 UNK         0.0892 
     70 H70        32.7153  -45.6319  -52.1174 H         1 UNK         0.3107 
     71 H71        35.4284  -44.9029  -52.1098 H         1 UNK         0.0773 
     72 H72        33.2711  -44.1160  -54.1240 H         1 UNK         0.0680 
     73 H73        34.8019  -43.2993  -53.9119 H         1 UNK         0.0680 
     74 H74        31.5266  -41.2902  -52.2276 H         1 UNK         0.0650 
     75 H75        32.2908  -41.5306  -53.7774 H         1 UNK         0.0650 
     76 H76        30.3184  -43.4639  -51.1981 H         1 UNK         0.1397 
     77 H77        27.8811  -45.3817  -54.1652 H         1 UNK         0.1363 
     78 H78        31.0954  -42.8224  -55.3659 H         1 UNK         0.1355 
     79 H79        28.6146  -45.3441  -56.5144 H         1 UNK         0.0707 
     80 H80        30.0700  -44.4787  -56.9456 H         1 UNK         0.0707 
     81 H81        29.2522  -42.0737  -58.9052 H         1 UNK         0.1034 
     82 H82        29.3317  -43.8082  -59.0230 H         1 UNK         0.1034 
     83 H83        26.8135  -42.1510  -59.5052 H         1 UNK         0.0482 
     84 H84        27.4931  -42.8601  -63.2204 H         1 UNK         0.3460 
     85 H85        26.4408  -43.7291  -62.1296 H         1 UNK         0.3460 
     86 H86        25.7001  -44.0381  -59.2780 H         1 UNK         0.2989 
     87 H87        24.9556  -46.1416  -60.1542 H         1 UNK         0.0559 
     88 H88        25.4344  -48.5764  -60.2734 H         1 UNK         0.0848 
     89 H89        27.1561  -48.2724  -60.0564 H         1 UNK         0.0848 
     90 H90        26.3360  -47.7041  -61.5037 H         1 UNK         0.0848 
     91 H91        26.1500  -47.5715  -57.9209 H         1 UNK         0.3144 
     92 H92        26.0472  -45.8464  -55.6011 H         1 UNK         0.0727 
     93 H93        24.0511  -45.8558  -54.0857 H         1 UNK         0.0790 
     94 H94        22.9902  -45.9044  -55.4944 H         1 UNK         0.0790 
     95 H95        24.0276  -44.5150  -55.2182 H         1 UNK         0.0790 
     96 H96        26.1005  -48.0182  -55.3885 H         1 UNK         0.3215 
     97 H97        24.3400  -50.2972  -54.6546 H         1 UNK         0.0863 
     98 H98        24.1778  -52.1401  -56.3560 H         1 UNK         0.0808 
     99 H99        24.1060  -50.9361  -57.6426 H         1 UNK         0.0808 
    100 H100       22.8217  -51.0306  -56.4481 H         1 UNK         0.0808 
    101 H101       26.5165  -50.6743  -54.8551 H         1 UNK         0.3118 
    102 H102       28.5799  -51.4707  -56.4430 H         1 UNK         0.0546 
    103 H103       29.1872  -48.7633  -57.7519 H         1 UNK         0.0828 
    104 H104       29.0861  -50.3129  -58.5736 H         1 UNK         0.0828 
    105 H105       30.3765  -50.0212  -57.4195 H         1 UNK         0.0828 
    106 H106       29.3605  -50.4889  -54.5926 H         1 UNK         0.3005 
    107 H107       29.8959  -47.3224  -53.5568 H         1 UNK         0.1257 
    108 H108       27.3588  -47.2720  -52.8765 H         1 UNK         0.0775 
    109 H109       27.6844  -48.7197  -51.9765 H         1 UNK         0.0775 
    110 H110       27.1444  -45.2084  -51.7438 H         1 UNK         0.0840 
    111 H111       28.2243  -44.5321  -50.5606 H         1 UNK         0.0840 
    112 H112       29.7038  -49.9532  -52.2332 H         1 UNK         0.2987 
    113 H113       31.9269  -50.7474  -51.5076 H         1 UNK         0.0785 
    114 H114       32.2857  -52.7849  -52.9787 H         1 UNK         0.0798 
    115 H115       31.9635  -51.8107  -54.4100 H         1 UNK         0.0798 
    116 H116       30.6882  -52.1141  -53.2347 H         1 UNK         0.0798 
    117 H117       33.7478  -49.5505  -53.2821 H         1 UNK         0.3079 
    118 H118       36.3900  -50.0153  -51.6382 H         1 UNK         0.0794 
    119 H119       37.2135  -52.2306  -52.2493 H         1 UNK         0.0786 
    120 H120       37.9978  -51.0495  -53.2850 H         1 UNK         0.0786 
    121 H121       36.6844  -52.0477  -53.9106 H         1 UNK         0.0786 
    122 H122       35.9720  -48.3866  -53.0520 H         1 UNK         0.3032 
    123 H123       36.2173  -47.5530  -55.8704 H         1 UNK         0.1094 
    124 H124       33.3489  -48.5530  -56.2954 H         1 UNK         0.0794 
    125 H125       34.0450  -47.1281  -57.0655 H         1 UNK         0.0794 
    126 H126       34.6915  -48.7199  -57.4194 H         1 UNK         0.0794 
    127 H127       33.7741  -47.2295  -54.1575 H         1 UNK         0.3016 
@<TRIPOS>BOND
     1    1    2 1    
     2    1   67 1    
     3    1   68 1    
     4    1   69 1    
     5    2    3 2    
     6    2    4 am   BACKBONE|DICT|INTERRES
     7    4    5 1    
     8    4   70 1    
     9    5    6 1    
    10    5   65 1    
    11    5   71 1    
    12    6    7 1    
    13    6   72 1    
    14    6   73 1    
    15    7    8 1    
    16    8    9 1    
    17    8   74 1    
    18    8   75 1    
    19    9   10 ar   
    20    9   14 ar   
    21   10   11 ar   
    22   10   76 1    
    23   11   12 ar   
    24   11   48 1    
    25   12   13 ar   
    26   12   77 1    
    27   13   14 ar   
    28   13   15 1    
    29   14   78 1    
    30   15   16 1    
    31   15   79 1    
    32   15   80 1    
    33   16   17 1    
    34   17   18 1    
    35   17   81 1    
    36   17   82 1    
    37   18   19 1    
    38   18   22 1    
    39   18   83 1    
    40   19   20 am   BACKBONE|DICT|INTERRES
    41   19   21 2    
    42   20   84 1    
    43   20   85 1    
    44   22   23 am   BACKBONE|DICT|INTERRES
    45   22   86 1    
    46   23   24 2    
    47   23   25 1    
    48   25   26 1    
    49   25   27 1    
    50   25   87 1    
    51   26   88 1    
    52   26   89 1    
    53   26   90 1    
    54   27   28 am   BACKBONE|DICT|INTERRES
    55   27   91 1    
    56   28   29 2    
    57   28   30 1    
    58   30   31 1    
    59   30   32 1    
    60   30   92 1    
    61   31   93 1    
    62   31   94 1    
    63   31   95 1    
    64   32   33 am   BACKBONE|DICT|INTERRES
    65   32   96 1    
    66   33   34 2    
    67   33   35 1    
    68   35   36 1    
    69   35   37 1    
    70   35   97 1    
    71   36   98 1    
    72   36   99 1    
    73   36  100 1    
    74   37   38 am   BACKBONE|DICT|INTERRES
    75   37  101 1    
    76   38   39 2    
    77   38   40 1    
    78   40   41 1    
    79   40   42 1    
    80   40  102 1    
    81   41  103 1    
    82   41  104 1    
    83   41  105 1    
    84   42   43 am   BACKBONE|DICT|INTERRES
    85   42  106 1    
    86   43   44 2    
    87   43   45 1    
    88   45   46 1    
    89   45   49 1    
    90   45  107 1    
    91   46   47 1    
    92   46  108 1    
    93   46  109 1    
    94   47   48 1    
    95   48  110 1    
    96   48  111 1    
    97   49   50 am   BACKBONE|DICT|INTERRES
    98   49  112 1    
    99   50   51 2    
   100   50   52 1    
   101   52   53 1    
   102   52   54 1    
   103   52  113 1    
   104   53  114 1    
   105   53  115 1    
   106   53  116 1    
   107   54   55 am   BACKBONE|DICT|INTERRES
   108   54  117 1    
   109   55   56 2    
   110   55   57 1    
   111   57   58 1    
   112   57   59 1    
   113   57  118 1    
   114   58  119 1    
   115   58  120 1    
   116   58  121 1    
   117   59   60 am   BACKBONE|DICT|INTERRES
   118   59  122 1    
   119   60   61 2    
   120   60   62 1    
   121   62   63 1    
   122   62   64 1    
   123   62  123 1    
   124   63  124 1    
   125   63  125 1    
   126   63  126 1    
   127   64   65 am   BACKBONE|DICT|INTERRES
   128   64  127 1    
   129   65   66 2    
@<TRIPOS>SUBSTRUCTURE
     1 UNK         1 GROUP             0       ****    0 ROOT    
