@<TRIPOS>MOLECULE
3R134
127   129    1
SMALL
USER_CHARGES


@<TRIPOS>ATOM
      1 CA         38.2366  -44.7402  -52.1061 C.3       0 UNK        -0.1968 
      2 C          37.5405  -45.1930  -53.3811 C.2       0 UNK         0.4852 
      3 O          38.2107  -45.5747  -54.3414 O.2       0 UNK        -0.5359 
      4 N          36.2012  -45.1572  -53.3963 N.am      1 UNK        -0.4300 
      5 CA         35.3621  -45.5534  -54.5351 C.3       1 UNK         0.0863 
      6 C6         33.9791  -44.8542  -54.4902 C.3       11 UNK        -0.0953 
      7 S7         32.9723  -45.2991  -53.0265 S.3       11 UNK        -0.2369 
      8 C8         32.5085  -43.6655  -52.3742 C.3       11 UNK         0.0226 
      9 C9         31.1538  -43.2128  -52.9006 C.ar      11 UNK        -0.0699 
     10 C10        30.0185  -43.3454  -52.0960 C.ar      11 UNK        -0.0804 
     11 C11        28.7730  -42.8992  -52.5455 C.ar      11 UNK        -0.0871 
     12 C12        28.6694  -42.3113  -53.8072 C.ar      11 UNK        -0.1008 
     13 C13        29.7898  -42.1958  -54.6376 C.ar      11 UNK        -0.0735 
     14 C14        31.0324  -42.6436  -54.1732 C.ar      11 UNK        -0.0945 
     15 C15        29.6740  -41.5681  -56.0253 C.3       11 UNK         0.0169 
     16 S16        28.1660  -42.0637  -56.9302 S.3       11 UNK        -0.2669 
     17 C17        28.4532  -43.8517  -57.1537 C.3       11 UNK        -0.0850 
     18 CA         28.6321  -44.2481  -58.6408 C.3       10 UNK         0.0855 
     19 C          30.0069  -43.7773  -59.2012 C.2       10 UNK         0.5543 
     20 N          30.0450  -42.6460  -59.8916 N.am      10 UNK        -0.7343 
     21 O          31.0376  -44.4099  -58.9854 O.2       10 UNK        -0.5027 
     22 N          28.3976  -45.6897  -58.8075 N.am      10 UNK        -0.4495 
     23 C          28.4186  -46.3538  -59.9721 C.2       10 UNK         0.4903 
     24 O          28.5590  -45.8196  -61.0724 O.2       10 UNK        -0.4860 
     25 CA         28.2374  -47.8766  -59.9004 C.3       9 UNK         0.0227 
     26 CB         29.5947  -48.5707  -59.6990 C.3       9 UNK        -0.1964 
     27 N          27.3374  -48.2618  -58.8152 N.am      9 UNK        -0.4231 
     28 C          26.0103  -48.4006  -58.9209 C.2       9 UNK         0.5014 
     29 O          25.3829  -48.2254  -59.9675 O.2       9 UNK        -0.5270 
     30 CA         25.2693  -48.8061  -57.6298 C.3       8 UNK         0.0284 
     31 CB         23.8748  -49.4120  -57.8948 C.3       8 UNK        -0.1977 
     32 N          26.0707  -49.6837  -56.7659 N.am      8 UNK        -0.4342 
     33 C          26.5564  -50.9025  -57.0556 C.2       8 UNK         0.5039 
     34 O          26.3251  -51.5051  -58.1044 O.2       8 UNK        -0.5547 
     35 CA         27.4890  -51.5574  -56.0174 C.3       7 UNK         0.0281 
     36 CB         28.9423  -51.5317  -56.5186 C.3       7 UNK        -0.1963 
     37 N          27.4319  -50.9267  -54.6962 N.am      7 UNK        -0.4444 
     38 C          26.4003  -51.0351  -53.8478 C.2       7 UNK         0.5104 
     39 O          25.4089  -51.7350  -54.0547 O.2       7 UNK        -0.5100 
     40 CA         26.4735  -50.1868  -52.5696 C.3       6 UNK         0.0396 
     41 CB         27.2557  -50.9285  -51.4746 C.3       6 UNK        -0.1801 
     42 N          27.0775  -48.8712  -52.7993 N.am      6 UNK        -0.4747 
     43 C          26.5145  -47.8771  -53.5040 C.2       6 UNK         0.5012 
     44 O          25.4288  -47.9694  -54.0762 O.2       6 UNK        -0.5003 
     45 CA         27.3286  -46.5722  -53.6032 C.3       5 UNK         0.0782 
     46 C46        27.3232  -45.8078  -52.2462 C.3       11 UNK        -0.0868 
     47 S47        26.3587  -44.2637  -52.3341 S.3       11 UNK        -0.2515 
     48 C48        27.5372  -43.0425  -51.6685 C.3       11 UNK         0.0199 
     49 N          28.6869  -46.8443  -54.0815 N.am      5 UNK        -0.4607 
     50 C          28.9978  -47.2942  -55.3051 C.2       4 UNK         0.5031 
     51 O          28.1866  -47.4129  -56.2245 O.2       4 UNK        -0.5119 
     52 CA         30.4610  -47.6920  -55.5578 C.3       4 UNK         0.0263 
     53 CB         31.1846  -46.5642  -56.3000 C.3       4 UNK        -0.1967 
     54 N          31.2120  -48.0486  -54.3494 N.am      4 UNK        -0.4237 
     55 C          30.9212  -49.0771  -53.5388 C.2       3 UNK         0.4908 
     56 O          29.9513  -49.8204  -53.7064 O.2       3 UNK        -0.5102 
     57 CA         31.8449  -49.2705  -52.3207 C.3       3 UNK         0.0241 
     58 CB         31.6283  -50.6249  -51.6121 C.3       3 UNK        -0.1971 
     59 N          33.2664  -49.0576  -52.6273 N.am      3 UNK        -0.4139 
     60 C          34.0353  -49.7642  -53.4721 C.2       2 UNK         0.5016 
     61 O          33.6345  -50.7141  -54.1470 O.2       2 UNK        -0.5319 
     62 CA         35.5093  -49.3178  -53.5592 C.3       2 UNK         0.0286 
     63 CB         36.3070  -50.0497  -54.6610 C.3       2 UNK        -0.1963 
     64 N          35.6437  -47.8589  -53.6818 N.am      2 UNK        -0.4790 
     65 C          35.2173  -47.0855  -54.6950 C.2       1 UNK         0.5024 
     66 O          34.6958  -47.5275  -55.7185 O.2       1 UNK        -0.4888 
     67 H67        38.8933  -43.8967  -52.3172 H         1 UNK         0.0892 
     68 H68        38.8422  -45.5504  -51.7008 H         1 UNK         0.0892 
     69 H69        37.5257  -44.4319  -51.3396 H         1 UNK         0.0892 
     70 H70        35.6990  -44.8358  -52.5804 H         1 UNK         0.3107 
     71 H71        35.8598  -45.2081  -55.4442 H         1 UNK         0.0773 
     72 H72        34.1288  -43.7746  -54.5205 H         1 UNK         0.0680 
     73 H73        33.4122  -45.0808  -55.3921 H         1 UNK         0.0680 
     74 H74        32.4815  -43.7307  -51.2855 H         1 UNK         0.0650 
     75 H75        33.2720  -42.9217  -52.6050 H         1 UNK         0.0650 
     76 H76        30.1070  -43.7910  -51.1145 H         1 UNK         0.1397 
     77 H77        27.7053  -41.9587  -54.1471 H         1 UNK         0.1363 
     78 H78        31.9090  -42.5445  -54.7983 H         1 UNK         0.1355 
     79 H79        30.5435  -41.8192  -56.6353 H         1 UNK         0.0707 
     80 H80        29.6748  -40.4830  -55.9159 H         1 UNK         0.0707 
     81 H81        29.3034  -44.1835  -56.5555 H         1 UNK         0.1034 
     82 H82        27.5843  -44.3601  -56.7322 H         1 UNK         0.1034 
     83 H83        27.8464  -43.7560  -59.2178 H         1 UNK         0.0482 
     84 H84        30.9277  -42.3210  -60.2531 H         1 UNK         0.3460 
     85 H85        29.2077  -42.1080  -60.0516 H         1 UNK         0.3460 
     86 H86        28.2746  -46.2232  -57.9562 H         1 UNK         0.2989 
     87 H87        27.8233  -48.2141  -60.8530 H         1 UNK         0.0559 
     88 H88        30.0681  -48.2767  -58.7620 H         1 UNK         0.0848 
     89 H89        30.2846  -48.3179  -60.5053 H         1 UNK         0.0848 
     90 H90        29.4870  -49.6556  -59.6933 H         1 UNK         0.0848 
     91 H91        27.7379  -48.3325  -57.8850 H         1 UNK         0.3144 
     92 H92        25.1248  -47.8834  -57.0657 H         1 UNK         0.0727 
     93 H93        23.3754  -49.6771  -56.9629 H         1 UNK         0.0790 
     94 H94        23.9332  -50.3090  -58.5120 H         1 UNK         0.0790 
     95 H95        23.2319  -48.7012  -58.4152 H         1 UNK         0.0790 
     96 H96        26.3248  -49.2826  -55.8724 H         1 UNK         0.3215 
     97 H97        27.1807  -52.5998  -55.9118 H         1 UNK         0.0863 
     98 H98        29.6192  -52.0040  -55.8061 H         1 UNK         0.0808 
     99 H99        29.2901  -50.5133  -56.6871 H         1 UNK         0.0808 
    100 H100       29.0390  -52.0681  -57.4635 H         1 UNK         0.0808 
    101 H101       28.2454  -50.3895  -54.4027 H         1 UNK         0.3118 
    102 H102       25.4532  -50.0307  -52.2128 H         1 UNK         0.0546 
    103 H103       26.7939  -51.8913  -51.2519 H         1 UNK         0.0828 
    104 H104       27.2793  -50.3591  -50.5454 H         1 UNK         0.0828 
    105 H105       28.2847  -51.1251  -51.7769 H         1 UNK         0.0828 
    106 H106       28.0023  -48.7297  -52.4194 H         1 UNK         0.3005 
    107 H107       26.8467  -45.9604  -54.3700 H         1 UNK         0.1257 
    108 H108       28.3397  -45.5791  -51.9271 H         1 UNK         0.0775 
    109 H109       26.9105  -46.4000  -51.4263 H         1 UNK         0.0775 
    110 H110       27.0381  -42.0754  -51.5924 H         1 UNK         0.0840 
    111 H111       27.8098  -43.3249  -50.6503 H         1 UNK         0.0840 
    112 H112       29.4331  -46.7434  -53.4106 H         1 UNK         0.2987 
    113 H113       30.4548  -48.5703  -56.2041 H         1 UNK         0.0785 
    114 H114       30.6942  -46.3506  -57.2484 H         1 UNK         0.0798 
    115 H115       32.2138  -46.8353  -56.5329 H         1 UNK         0.0798 
    116 H116       31.1914  -45.6400  -55.7213 H         1 UNK         0.0798 
    117 H117       32.0221  -47.4830  -54.1373 H         1 UNK         0.3079 
    118 H118       31.5697  -48.4873  -51.6127 H         1 UNK         0.0794 
    119 H119       31.7990  -51.4663  -52.2847 H         1 UNK         0.0786 
    120 H120       30.6083  -50.7112  -51.2375 H         1 UNK         0.0786 
    121 H121       32.2948  -50.7377  -50.7571 H         1 UNK         0.0786 
    122 H122       33.7022  -48.2850  -52.1427 H         1 UNK         0.3032 
    123 H123       35.9595  -49.5904  -52.6029 H         1 UNK         0.1094 
    124 H124       37.3443  -49.7163  -54.6878 H         1 UNK         0.0794 
    125 H125       36.3175  -51.1257  -54.4830 H         1 UNK         0.0794 
    126 H126       35.8777  -49.8919  -55.6508 H         1 UNK         0.0794 
    127 H127       36.0641  -47.3885  -52.8924 H         1 UNK         0.3016 
@<TRIPOS>BOND
     1    1    2 1    
     2    1   67 1    
     3    1   68 1    
     4    1   69 1    
     5    2    3 2    
     6    2    4 am   BACKBONE|DICT|INTERRES
     7    4    5 1    
     8    4   70 1    
     9    5    6 1    
    10    5   65 1    
    11    5   71 1    
    12    6    7 1    
    13    6   72 1    
    14    6   73 1    
    15    7    8 1    
    16    8    9 1    
    17    8   74 1    
    18    8   75 1    
    19    9   10 ar   
    20    9   14 ar   
    21   10   11 ar   
    22   10   76 1    
    23   11   12 ar   
    24   11   48 1    
    25   12   13 ar   
    26   12   77 1    
    27   13   14 ar   
    28   13   15 1    
    29   14   78 1    
    30   15   16 1    
    31   15   79 1    
    32   15   80 1    
    33   16   17 1    
    34   17   18 1    
    35   17   81 1    
    36   17   82 1    
    37   18   19 1    
    38   18   22 1    
    39   18   83 1    
    40   19   20 am   BACKBONE|DICT|INTERRES
    41   19   21 2    
    42   20   84 1    
    43   20   85 1    
    44   22   23 am   BACKBONE|DICT|INTERRES
    45   22   86 1    
    46   23   24 2    
    47   23   25 1    
    48   25   26 1    
    49   25   27 1    
    50   25   87 1    
    51   26   88 1    
    52   26   89 1    
    53   26   90 1    
    54   27   28 am   BACKBONE|DICT|INTERRES
    55   27   91 1    
    56   28   29 2    
    57   28   30 1    
    58   30   31 1    
    59   30   32 1    
    60   30   92 1    
    61   31   93 1    
    62   31   94 1    
    63   31   95 1    
    64   32   33 am   BACKBONE|DICT|INTERRES
    65   32   96 1    
    66   33   34 2    
    67   33   35 1    
    68   35   36 1    
    69   35   37 1    
    70   35   97 1    
    71   36   98 1    
    72   36   99 1    
    73   36  100 1    
    74   37   38 am   BACKBONE|DICT|INTERRES
    75   37  101 1    
    76   38   39 2    
    77   38   40 1    
    78   40   41 1    
    79   40   42 1    
    80   40  102 1    
    81   41  103 1    
    82   41  104 1    
    83   41  105 1    
    84   42   43 am   BACKBONE|DICT|INTERRES
    85   42  106 1    
    86   43   44 2    
    87   43   45 1    
    88   45   46 1    
    89   45   49 1    
    90   45  107 1    
    91   46   47 1    
    92   46  108 1    
    93   46  109 1    
    94   47   48 1    
    95   48  110 1    
    96   48  111 1    
    97   49   50 am   BACKBONE|DICT|INTERRES
    98   49  112 1    
    99   50   51 2    
   100   50   52 1    
   101   52   53 1    
   102   52   54 1    
   103   52  113 1    
   104   53  114 1    
   105   53  115 1    
   106   53  116 1    
   107   54   55 am   BACKBONE|DICT|INTERRES
   108   54  117 1    
   109   55   56 2    
   110   55   57 1    
   111   57   58 1    
   112   57   59 1    
   113   57  118 1    
   114   58  119 1    
   115   58  120 1    
   116   58  121 1    
   117   59   60 am   BACKBONE|DICT|INTERRES
   118   59  122 1    
   119   60   61 2    
   120   60   62 1    
   121   62   63 1    
   122   62   64 1    
   123   62  123 1    
   124   63  124 1    
   125   63  125 1    
   126   63  126 1    
   127   64   65 am   BACKBONE|DICT|INTERRES
   128   64  127 1    
   129   65   66 2    
@<TRIPOS>SUBSTRUCTURE
     1 UNK         1 GROUP             0       ****    0 ROOT    
