@<TRIPOS>MOLECULE
3R134
127   129    1
SMALL
USER_CHARGES


@<TRIPOS>ATOM
      1 CA         28.6867  -45.4557  -49.4006 C.3       0 UNK        -0.1968 
      2 C          30.0935  -45.1221  -49.8755 C.2       0 UNK         0.4852 
      3 O          30.4815  -43.9531  -49.8657 O.2       0 UNK        -0.5359 
      4 N          30.8559  -46.1383  -50.2907 N.am      1 UNK        -0.4300 
      5 CA         32.2246  -46.0336  -50.7881 C.3       1 UNK         0.0863 
      6 C6         32.2694  -45.5254  -52.2534 C.3       11 UNK        -0.0953 
      7 S7         33.9180  -44.9276  -52.7692 S.3       11 UNK        -0.2369 
      8 C8         33.5156  -43.3643  -53.6165 C.3       11 UNK         0.0226 
      9 C9         32.5767  -43.5892  -54.7929 C.ar      11 UNK        -0.0699 
     10 C10        33.0516  -44.1625  -55.9768 C.ar      11 UNK        -0.0804 
     11 C11        32.1748  -44.4350  -57.0310 C.ar      11 UNK        -0.0871 
     12 C12        30.8198  -44.1197  -56.8976 C.ar      11 UNK        -0.1008 
     13 C13        30.3356  -43.5377  -55.7235 C.ar      11 UNK        -0.0735 
     14 C14        31.2222  -43.2607  -54.6806 C.ar      11 UNK        -0.0945 
     15 C15        28.8469  -43.2908  -55.5398 C.3       11 UNK         0.0169 
     16 S16        28.2742  -41.7192  -56.2509 S.3       11 UNK        -0.2669 
     17 C17        27.9517  -42.1495  -57.9969 C.3       11 UNK        -0.0850 
     18 CA         26.5142  -42.6894  -58.2420 C.3       10 UNK         0.0855 
     19 C          26.1193  -42.5617  -59.7444 C.2       10 UNK         0.5543 
     20 N          25.8407  -43.6456  -60.4592 N.am      10 UNK        -0.7343 
     21 O          26.0569  -41.4527  -60.2691 O.2       10 UNK        -0.5027 
     22 N          26.3269  -44.0450  -57.6867 N.am      10 UNK        -0.4495 
     23 C          25.1423  -44.5625  -57.3332 C.2       10 UNK         0.4903 
     24 O          24.0852  -43.9315  -57.3593 O.2       10 UNK        -0.4860 
     25 CA         25.1137  -46.0419  -56.9066 C.3       9 UNK         0.0227 
     26 CB         24.8140  -46.9327  -58.1222 C.3       9 UNK        -0.1964 
     27 N          26.3403  -46.5111  -56.2531 N.am      9 UNK        -0.4231 
     28 C          26.7128  -46.1802  -55.0085 C.2       9 UNK         0.5014 
     29 O          26.0829  -45.4049  -54.2867 O.2       9 UNK        -0.5270 
     30 CA         28.0131  -46.8341  -54.5009 C.3       8 UNK         0.0284 
     31 CB         28.4435  -46.3500  -53.0992 C.3       8 UNK        -0.1977 
     32 N          27.9456  -48.2990  -54.5517 N.am      8 UNK        -0.4342 
     33 C          27.0979  -49.1108  -53.8997 C.2       8 UNK         0.5039 
     34 O          26.2468  -48.7265  -53.0958 O.2       8 UNK        -0.5547 
     35 CA         27.2468  -50.6173  -54.2026 C.3       7 UNK         0.0281 
     36 CB         26.0647  -51.4631  -53.6804 C.3       7 UNK        -0.1963 
     37 N          27.5056  -50.8854  -55.6248 N.am      7 UNK        -0.4444 
     38 C          26.6987  -50.6107  -56.6623 C.2       7 UNK         0.5104 
     39 O          25.5588  -50.1584  -56.5535 O.2       7 UNK        -0.5100 
     40 CA         27.3098  -50.8526  -58.0583 C.3       6 UNK         0.0396 
     41 CB         26.4204  -50.3381  -59.2089 C.3       6 UNK        -0.1801 
     42 N          28.6707  -50.3093  -58.1768 N.am      6 UNK        -0.4747 
     43 C          29.0630  -49.0421  -57.9704 C.2       6 UNK         0.5012 
     44 O          28.2940  -48.1311  -57.6512 O.2       6 UNK        -0.5003 
     45 CA         30.5803  -48.7734  -58.0668 C.3       5 UNK         0.0782 
     46 C46        30.9131  -47.2672  -57.9396 C.3       11 UNK        -0.0868 
     47 S47        32.6874  -46.9133  -58.1706 S.3       11 UNK        -0.2515 
     48 C48        32.6799  -45.0966  -58.3053 C.3       11 UNK         0.0199 
     49 N          31.3017  -49.5636  -57.0631 N.am      5 UNK        -0.4607 
     50 C          31.6396  -50.8524  -57.1710 C.2       4 UNK         0.5031 
     51 O          31.3302  -51.5460  -58.1417 O.2       4 UNK        -0.5119 
     52 CA         32.4394  -51.4630  -56.0015 C.3       4 UNK         0.0263 
     53 CB         32.9483  -52.8830  -56.3136 C.3       4 UNK        -0.1967 
     54 N          33.5771  -50.6304  -55.5951 N.am      4 UNK        -0.4237 
     55 C          33.5032  -49.5420  -54.8193 C.2       3 UNK         0.4908 
     56 O          32.4421  -49.0734  -54.3995 O.2       3 UNK        -0.5102 
     57 CA         34.8277  -48.8324  -54.5014 C.3       3 UNK         0.0241 
     58 CB         34.9943  -47.5833  -55.3809 C.3       3 UNK        -0.1971 
     59 N          34.8751  -48.4360  -53.0959 N.am      3 UNK        -0.4139 
     60 C          35.0840  -49.2745  -52.0704 C.2       2 UNK         0.5016 
     61 O          35.3397  -50.4717  -52.2070 O.2       2 UNK        -0.5319 
     62 CA         35.0057  -48.6806  -50.6508 C.3       2 UNK         0.0286 
     63 CB         36.4154  -48.3902  -50.1101 C.3       2 UNK        -0.1963 
     64 N          34.2087  -47.4517  -50.5972 N.am      2 UNK        -0.4790 
     65 C          32.8711  -47.4211  -50.6462 C.2       1 UNK         0.5024 
     66 O          32.1597  -48.4293  -50.6096 O.2       1 UNK        -0.4888 
     67 H67        27.9523  -44.9197  -50.0013 H         1 UNK         0.0892 
     68 H68        28.4724  -46.5216  -49.4775 H         1 UNK         0.0892 
     69 H69        28.5605  -45.1577  -48.3601 H         1 UNK         0.0892 
     70 H70        30.5233  -47.0945  -50.2422 H         1 UNK         0.3107 
     71 H71        32.7648  -45.3386  -50.1412 H         1 UNK         0.0773 
     72 H72        31.5644  -44.7022  -52.3612 H         1 UNK         0.0680 
     73 H73        31.9352  -46.2934  -52.9544 H         1 UNK         0.0680 
     74 H74        33.0796  -42.6687  -52.8977 H         1 UNK         0.0650 
     75 H75        34.4392  -42.9039  -53.9697 H         1 UNK         0.0650 
     76 H76        34.0970  -44.4255  -56.0636 H         1 UNK         0.1397 
     77 H77        30.1397  -44.3652  -57.6991 H         1 UNK         0.1363 
     78 H78        30.8490  -42.8269  -53.7629 H         1 UNK         0.1355 
     79 H79        28.5969  -43.2924  -54.4781 H         1 UNK         0.0707 
     80 H80        28.2941  -44.1163  -55.9765 H         1 UNK         0.0707 
     81 H81        28.6999  -42.8448  -58.3725 H         1 UNK         0.1034 
     82 H82        28.1118  -41.2277  -58.5601 H         1 UNK         0.1034 
     83 H83        25.8290  -42.0226  -57.7146 H         1 UNK         0.0482 
     84 H84        25.5823  -43.5438  -61.4282 H         1 UNK         0.3460 
     85 H85        25.8816  -44.5599  -60.0409 H         1 UNK         0.3460 
     86 H86        27.1376  -44.6435  -57.6680 H         1 UNK         0.2989 
     87 H87        24.2919  -46.1589  -56.1968 H         1 UNK         0.0559 
     88 H88        23.9113  -46.6032  -58.6388 H         1 UNK         0.0848 
     89 H89        24.6491  -47.9667  -57.8207 H         1 UNK         0.0848 
     90 H90        25.6298  -46.9180  -58.8456 H         1 UNK         0.0848 
     91 H91        26.9282  -47.1560  -56.7785 H         1 UNK         0.3144 
     92 H92        28.7988  -46.5393  -55.1983 H         1 UNK         0.0727 
     93 H93        29.3804  -46.8153  -52.7939 H         1 UNK         0.0790 
     94 H94        27.6933  -46.5771  -52.3413 H         1 UNK         0.0790 
     95 H95        28.5999  -45.2715  -53.0864 H         1 UNK         0.0790 
     96 H96        28.5640  -48.7303  -55.2226 H         1 UNK         0.3215 
     97 H97        28.1387  -50.9417  -53.6637 H         1 UNK         0.0863 
     98 H98        26.2045  -52.5212  -53.9010 H         1 UNK         0.0808 
     99 H99        25.1161  -51.1507  -54.1178 H         1 UNK         0.0808 
    100 H100       25.9669  -51.3690  -52.5982 H         1 UNK         0.0808 
    101 H101       28.4152  -51.2690  -55.8395 H         1 UNK         0.3118 
    102 H102       27.3958  -51.9345  -58.1688 H         1 UNK         0.0546 
    103 H103       26.3018  -49.2560  -59.1763 H         1 UNK         0.0828 
    104 H104       25.4233  -50.7775  -59.1625 H         1 UNK         0.0828 
    105 H105       26.8421  -50.5972  -60.1797 H         1 UNK         0.0828 
    106 H106       29.4024  -50.9836  -58.3846 H         1 UNK         0.3005 
    107 H107       30.8940  -49.0977  -59.0620 H         1 UNK         0.1257 
    108 H108       30.3520  -46.6903  -58.6774 H         1 UNK         0.0775 
    109 H109       30.6152  -46.8983  -56.9567 H         1 UNK         0.0775 
    110 H110       33.6929  -44.7547  -58.5225 H         1 UNK         0.0840 
    111 H111       32.0700  -44.7974  -59.1592 H         1 UNK         0.0840 
    112 H112       31.5873  -49.0745  -56.2209 H         1 UNK         0.2987 
    113 H113       31.7499  -51.5405  -55.1580 H         1 UNK         0.0785 
    114 H114       33.4713  -53.3142  -55.4597 H         1 UNK         0.0798 
    115 H115       33.6306  -52.8896  -57.1647 H         1 UNK         0.0798 
    116 H116       32.1213  -53.5530  -56.5533 H         1 UNK         0.0798 
    117 H117       34.4826  -50.9181  -55.9385 H         1 UNK         0.3079 
    118 H118       35.6609  -49.5108  -54.6980 H         1 UNK         0.0794 
    119 H119       35.9121  -47.0454  -55.1431 H         1 UNK         0.0786 
    120 H120       34.1588  -46.8921  -55.2599 H         1 UNK         0.0786 
    121 H121       35.0420  -47.8544  -56.4361 H         1 UNK         0.0786 
    122 H122       34.6284  -47.4788  -52.8891 H         1 UNK         0.3032 
    123 H123       34.5391  -49.4314  -50.0083 H         1 UNK         0.1094 
    124 H124       36.9345  -47.6433  -50.7122 H         1 UNK         0.0794 
    125 H125       36.3797  -48.0289  -49.0822 H         1 UNK         0.0794 
    126 H126       37.0274  -49.2935  -50.1129 H         1 UNK         0.0794 
    127 H127       34.7159  -46.5775  -50.6282 H         1 UNK         0.3016 
@<TRIPOS>BOND
     1    1    2 1    
     2    1   67 1    
     3    1   68 1    
     4    1   69 1    
     5    2    3 2    
     6    2    4 am   BACKBONE|DICT|INTERRES
     7    4    5 1    
     8    4   70 1    
     9    5    6 1    
    10    5   65 1    
    11    5   71 1    
    12    6    7 1    
    13    6   72 1    
    14    6   73 1    
    15    7    8 1    
    16    8    9 1    
    17    8   74 1    
    18    8   75 1    
    19    9   10 ar   
    20    9   14 ar   
    21   10   11 ar   
    22   10   76 1    
    23   11   12 ar   
    24   11   48 1    
    25   12   13 ar   
    26   12   77 1    
    27   13   14 ar   
    28   13   15 1    
    29   14   78 1    
    30   15   16 1    
    31   15   79 1    
    32   15   80 1    
    33   16   17 1    
    34   17   18 1    
    35   17   81 1    
    36   17   82 1    
    37   18   19 1    
    38   18   22 1    
    39   18   83 1    
    40   19   20 am   BACKBONE|DICT|INTERRES
    41   19   21 2    
    42   20   84 1    
    43   20   85 1    
    44   22   23 am   BACKBONE|DICT|INTERRES
    45   22   86 1    
    46   23   24 2    
    47   23   25 1    
    48   25   26 1    
    49   25   27 1    
    50   25   87 1    
    51   26   88 1    
    52   26   89 1    
    53   26   90 1    
    54   27   28 am   BACKBONE|DICT|INTERRES
    55   27   91 1    
    56   28   29 2    
    57   28   30 1    
    58   30   31 1    
    59   30   32 1    
    60   30   92 1    
    61   31   93 1    
    62   31   94 1    
    63   31   95 1    
    64   32   33 am   BACKBONE|DICT|INTERRES
    65   32   96 1    
    66   33   34 2    
    67   33   35 1    
    68   35   36 1    
    69   35   37 1    
    70   35   97 1    
    71   36   98 1    
    72   36   99 1    
    73   36  100 1    
    74   37   38 am   BACKBONE|DICT|INTERRES
    75   37  101 1    
    76   38   39 2    
    77   38   40 1    
    78   40   41 1    
    79   40   42 1    
    80   40  102 1    
    81   41  103 1    
    82   41  104 1    
    83   41  105 1    
    84   42   43 am   BACKBONE|DICT|INTERRES
    85   42  106 1    
    86   43   44 2    
    87   43   45 1    
    88   45   46 1    
    89   45   49 1    
    90   45  107 1    
    91   46   47 1    
    92   46  108 1    
    93   46  109 1    
    94   47   48 1    
    95   48  110 1    
    96   48  111 1    
    97   49   50 am   BACKBONE|DICT|INTERRES
    98   49  112 1    
    99   50   51 2    
   100   50   52 1    
   101   52   53 1    
   102   52   54 1    
   103   52  113 1    
   104   53  114 1    
   105   53  115 1    
   106   53  116 1    
   107   54   55 am   BACKBONE|DICT|INTERRES
   108   54  117 1    
   109   55   56 2    
   110   55   57 1    
   111   57   58 1    
   112   57   59 1    
   113   57  118 1    
   114   58  119 1    
   115   58  120 1    
   116   58  121 1    
   117   59   60 am   BACKBONE|DICT|INTERRES
   118   59  122 1    
   119   60   61 2    
   120   60   62 1    
   121   62   63 1    
   122   62   64 1    
   123   62  123 1    
   124   63  124 1    
   125   63  125 1    
   126   63  126 1    
   127   64   65 am   BACKBONE|DICT|INTERRES
   128   64  127 1    
   129   65   66 2    
@<TRIPOS>SUBSTRUCTURE
     1 UNK         1 GROUP             0       ****    0 ROOT    
