@<TRIPOS>MOLECULE
3R134
127   129    1
SMALL
USER_CHARGES


@<TRIPOS>ATOM
      1 CA         31.3939  -44.8522  -47.5044 C.3       0 UNK        -0.1968 
      2 C          32.7263  -45.4183  -47.9729 C.2       0 UNK         0.4852 
      3 O          33.4476  -46.0222  -47.1776 O.2       0 UNK        -0.5359 
      4 N          33.0575  -45.2270  -49.2570 N.am      1 UNK        -0.4300 
      5 CA         34.2875  -45.7182  -49.8915 C.3       1 UNK         0.0863 
      6 C6         34.5836  -44.9663  -51.2149 C.3       11 UNK        -0.0953 
      7 S7         33.2782  -45.1684  -52.4751 S.3       11 UNK        -0.2369 
      8 C8         33.3272  -43.5639  -53.3246 C.3       11 UNK         0.0226 
      9 C9         32.4409  -43.6033  -54.5584 C.ar      11 UNK        -0.0699 
     10 C10        32.9554  -44.0646  -55.7720 C.ar      11 UNK        -0.0804 
     11 C11        32.1366  -44.1602  -56.8998 C.ar      11 UNK        -0.0871 
     12 C12        30.7899  -43.7975  -56.8058 C.ar      11 UNK        -0.1008 
     13 C13        30.2633  -43.3162  -55.6000 C.ar      11 UNK        -0.0735 
     14 C14        31.0995  -43.2169  -54.4820 C.ar      11 UNK        -0.0945 
     15 C15        28.7908  -42.9343  -55.4722 C.3       11 UNK         0.0169 
     16 S16        28.2454  -41.7387  -56.7335 S.3       11 UNK        -0.2669 
     17 C17        27.4710  -42.8438  -57.9658 C.3       11 UNK        -0.0850 
     18 CA         25.9288  -42.9477  -57.7904 C.3       10 UNK         0.0855 
     19 C          25.1551  -41.7721  -58.4485 C.2       10 UNK         0.5543 
     20 N          25.3646  -40.5502  -57.9819 N.am      10 UNK        -0.7343 
     21 O          24.3707  -41.9543  -59.3794 O.2       10 UNK        -0.5027 
     22 N          25.4124  -44.2317  -58.2736 N.am      10 UNK        -0.4495 
     23 C          25.4852  -45.4078  -57.6425 C.2       10 UNK         0.4903 
     24 O          26.0208  -45.5573  -56.5448 O.2       10 UNK        -0.4860 
     25 CA         24.8241  -46.6107  -58.3392 C.3       9 UNK         0.0227 
     26 CB         24.6030  -46.4054  -59.8585 C.3       9 UNK        -0.1964 
     27 N          25.6011  -47.8301  -58.1031 N.am      9 UNK        -0.4231 
     28 C          25.1124  -49.0716  -58.2345 C.2       9 UNK         0.5014 
     29 O          23.9284  -49.3175  -58.4736 O.2       9 UNK        -0.5270 
     30 CA         26.1017  -50.2438  -58.1306 C.3       8 UNK         0.0284 
     31 CB         26.9861  -50.3176  -59.3865 C.3       8 UNK        -0.1977 
     32 N          26.9408  -50.2066  -56.9338 N.am      8 UNK        -0.4342 
     33 C          26.5029  -50.4248  -55.6858 C.2       8 UNK         0.5039 
     34 O          25.3307  -50.6741  -55.4010 O.2       8 UNK        -0.5547 
     35 CA         27.5521  -50.3601  -54.5620 C.3       7 UNK         0.0281 
     36 CB         28.3297  -51.6818  -54.4523 C.3       7 UNK        -0.1963 
     37 N          28.4881  -49.2531  -54.7521 N.am      7 UNK        -0.4444 
     38 C          28.1607  -47.9614  -54.6154 C.2       7 UNK         0.5104 
     39 O          27.0751  -47.5721  -54.1854 O.2       7 UNK        -0.5100 
     40 CA         29.2237  -46.9342  -55.0315 C.3       6 UNK         0.0396 
     41 CB         30.1473  -46.6119  -53.8479 C.3       6 UNK        -0.1801 
     42 N          30.0238  -47.3816  -56.1745 N.am      6 UNK        -0.4747 
     43 C          29.5703  -47.4753  -57.4334 C.2       6 UNK         0.5012 
     44 O          28.4261  -47.1790  -57.7768 O.2       6 UNK        -0.5003 
     45 CA         30.5357  -48.0535  -58.4870 C.3       5 UNK         0.0782 
     46 C46        31.3734  -46.9523  -59.1868 C.3       11 UNK        -0.0868 
     47 S47        32.8777  -46.4471  -58.2765 S.3       11 UNK        -0.2515 
     48 C48        32.7256  -44.6348  -58.2187 C.3       11 UNK         0.0199 
     49 N          31.3638  -49.1405  -57.9568 N.am      5 UNK        -0.4607 
     50 C          30.8980  -50.3215  -57.5329 C.2       4 UNK         0.5031 
     51 O          29.7149  -50.6500  -57.5977 O.2       4 UNK        -0.5119 
     52 CA         31.9143  -51.2674  -56.8708 C.3       4 UNK         0.0263 
     53 CB         32.6557  -52.0940  -57.9331 C.3       4 UNK        -0.1967 
     54 N          32.8843  -50.5657  -56.0206 N.am      4 UNK        -0.4237 
     55 C          32.5551  -49.8467  -54.9385 C.2       3 UNK         0.4908 
     56 O          31.3951  -49.7012  -54.5460 O.2       3 UNK        -0.5102 
     57 CA         33.7041  -49.1186  -54.2216 C.3       3 UNK         0.0241 
     58 CB         34.0193  -47.7921  -54.9332 C.3       3 UNK        -0.1971 
     59 N          33.3737  -48.8372  -52.8236 N.am      3 UNK        -0.4139 
     60 C          33.3221  -49.7562  -51.8491 C.2       2 UNK         0.5016 
     61 O          33.6342  -50.9379  -52.0126 O.2       2 UNK        -0.5319 
     62 CA         32.8311  -49.2773  -50.4653 C.3       2 UNK         0.0286 
     63 CB         33.3434  -50.1617  -49.3078 C.3       2 UNK        -0.1963 
     64 N          33.0990  -47.8561  -50.1985 N.am      2 UNK        -0.4790 
     65 C          34.2956  -47.2509  -50.1007 C.2       1 UNK         0.5024 
     66 O          35.3744  -47.8385  -50.1894 O.2       1 UNK        -0.4888 
     67 H67        30.8612  -44.3432  -48.3075 H         1 UNK         0.0892 
     68 H68        30.7570  -45.6531  -47.1296 H         1 UNK         0.0892 
     69 H69        31.5532  -44.1374  -46.6975 H         1 UNK         0.0892 
     70 H70        32.4317  -44.7176  -49.8653 H         1 UNK         0.3107 
     71 H71        35.1116  -45.5009  -49.2082 H         1 UNK         0.0773 
     72 H72        35.5313  -45.2991  -51.6427 H         1 UNK         0.0680 
     73 H73        34.7121  -43.9034  -51.0042 H         1 UNK         0.0680 
     74 H74        34.3549  -43.3311  -53.6077 H         1 UNK         0.0650 
     75 H75        33.0017  -42.7772  -52.6423 H         1 UNK         0.0650 
     76 H76        33.9925  -44.3651  -55.8352 H         1 UNK         0.1397 
     77 H77        30.1581  -43.8832  -57.6769 H         1 UNK         0.1363 
     78 H78        30.7011  -42.8675  -53.5393 H         1 UNK         0.1355 
     79 H79        28.1695  -43.8286  -55.5133 H         1 UNK         0.0707 
     80 H80        28.6025  -42.4875  -54.4949 H         1 UNK         0.0707 
     81 H81        27.7299  -42.5000  -58.9689 H         1 UNK         0.1034 
     82 H82        27.9239  -43.8317  -57.8763 H         1 UNK         0.1034 
     83 H83        25.6878  -42.9055  -56.7261 H         1 UNK         0.0482 
     84 H84        26.0335  -40.3951  -57.2423 H         1 UNK         0.3460 
     85 H85        24.8751  -39.7713  -58.3936 H         1 UNK         0.3460 
     86 H86        24.9062  -44.1656  -59.1470 H         1 UNK         0.2989 
     87 H87        23.8485  -46.7310  -57.8640 H         1 UNK         0.0559 
     88 H88        25.5430  -46.2161  -60.3789 H         1 UNK         0.0848 
     89 H89        23.9323  -45.5694  -60.0596 H         1 UNK         0.0848 
     90 H90        24.1443  -47.2797  -60.3200 H         1 UNK         0.0848 
     91 H91        26.5812  -47.6852  -57.8625 H         1 UNK         0.3144 
     92 H92        25.5143  -51.1637  -58.0887 H         1 UNK         0.0727 
     93 H93        27.6193  -51.2050  -59.3740 H         1 UNK         0.0790 
     94 H94        27.6336  -49.4454  -59.4772 H         1 UNK         0.0790 
     95 H95        26.3774  -50.3675  -60.2905 H         1 UNK         0.0790 
     96 H96        27.9407  -50.0975  -57.0824 H         1 UNK         0.3215 
     97 H97        27.0234  -50.1996  -53.6198 H         1 UNK         0.0863 
     98 H98        29.0507  -51.6507  -53.6351 H         1 UNK         0.0808 
     99 H99        28.8741  -51.9114  -55.3683 H         1 UNK         0.0808 
    100 H100       27.6532  -52.5151  -54.2584 H         1 UNK         0.0808 
    101 H101       29.4426  -49.4825  -55.0121 H         1 UNK         0.3118 
    102 H102       28.7085  -46.0200  -55.3263 H         1 UNK         0.0546 
    103 H103       29.6028  -46.0858  -53.0633 H         1 UNK         0.0828 
    104 H104       30.9712  -45.9739  -54.1580 H         1 UNK         0.0828 
    105 H105       30.5742  -47.5094  -53.4011 H         1 UNK         0.0828 
    106 H106       30.9652  -47.6879  -55.9783 H         1 UNK         0.3005 
    107 H107       29.8971  -48.4974  -59.2542 H         1 UNK         0.1257 
    108 H108       30.7543  -46.0829  -59.4160 H         1 UNK         0.0775 
    109 H109       31.7069  -47.3273  -60.1556 H         1 UNK         0.0775 
    110 H110       33.7203  -44.2030  -58.3401 H         1 UNK         0.0840 
    111 H111       32.1416  -44.2682  -59.0639 H         1 UNK         0.0840 
    112 H112       32.3485  -48.9371  -57.8640 H         1 UNK         0.2987 
    113 H113       31.3535  -51.9547  -56.2337 H         1 UNK         0.0785 
    114 H114       31.9512  -52.6370  -58.5650 H         1 UNK         0.0798 
    115 H115       33.3116  -52.8339  -57.4739 H         1 UNK         0.0798 
    116 H116       33.2623  -51.4657  -58.5867 H         1 UNK         0.0798 
    117 H117       33.8563  -50.6327  -56.2874 H         1 UNK         0.3079 
    118 H118       34.5925  -49.7534  -54.2448 H         1 UNK         0.0794 
    119 H119       33.1509  -47.1329  -54.9694 H         1 UNK         0.0786 
    120 H120       34.3413  -47.9628  -55.9610 H         1 UNK         0.0786 
    121 H121       34.8240  -47.2539  -54.4317 H         1 UNK         0.0786 
    122 H122       33.0947  -47.8919  -52.6048 H         1 UNK         0.3032 
    123 H123       31.7449  -49.3797  -50.4940 H         1 UNK         0.1094 
    124 H124       34.4327  -50.1819  -49.2635 H         1 UNK         0.0794 
    125 H125       32.9747  -49.8081  -48.3449 H         1 UNK         0.0794 
    126 H126       33.0055  -51.1923  -49.4233 H         1 UNK         0.0794 
    127 H127       32.2822  -47.2669  -50.1146 H         1 UNK         0.3016 
@<TRIPOS>BOND
     1    1    2 1    
     2    1   67 1    
     3    1   68 1    
     4    1   69 1    
     5    2    3 2    
     6    2    4 am   BACKBONE|DICT|INTERRES
     7    4    5 1    
     8    4   70 1    
     9    5    6 1    
    10    5   65 1    
    11    5   71 1    
    12    6    7 1    
    13    6   72 1    
    14    6   73 1    
    15    7    8 1    
    16    8    9 1    
    17    8   74 1    
    18    8   75 1    
    19    9   10 ar   
    20    9   14 ar   
    21   10   11 ar   
    22   10   76 1    
    23   11   12 ar   
    24   11   48 1    
    25   12   13 ar   
    26   12   77 1    
    27   13   14 ar   
    28   13   15 1    
    29   14   78 1    
    30   15   16 1    
    31   15   79 1    
    32   15   80 1    
    33   16   17 1    
    34   17   18 1    
    35   17   81 1    
    36   17   82 1    
    37   18   19 1    
    38   18   22 1    
    39   18   83 1    
    40   19   20 am   BACKBONE|DICT|INTERRES
    41   19   21 2    
    42   20   84 1    
    43   20   85 1    
    44   22   23 am   BACKBONE|DICT|INTERRES
    45   22   86 1    
    46   23   24 2    
    47   23   25 1    
    48   25   26 1    
    49   25   27 1    
    50   25   87 1    
    51   26   88 1    
    52   26   89 1    
    53   26   90 1    
    54   27   28 am   BACKBONE|DICT|INTERRES
    55   27   91 1    
    56   28   29 2    
    57   28   30 1    
    58   30   31 1    
    59   30   32 1    
    60   30   92 1    
    61   31   93 1    
    62   31   94 1    
    63   31   95 1    
    64   32   33 am   BACKBONE|DICT|INTERRES
    65   32   96 1    
    66   33   34 2    
    67   33   35 1    
    68   35   36 1    
    69   35   37 1    
    70   35   97 1    
    71   36   98 1    
    72   36   99 1    
    73   36  100 1    
    74   37   38 am   BACKBONE|DICT|INTERRES
    75   37  101 1    
    76   38   39 2    
    77   38   40 1    
    78   40   41 1    
    79   40   42 1    
    80   40  102 1    
    81   41  103 1    
    82   41  104 1    
    83   41  105 1    
    84   42   43 am   BACKBONE|DICT|INTERRES
    85   42  106 1    
    86   43   44 2    
    87   43   45 1    
    88   45   46 1    
    89   45   49 1    
    90   45  107 1    
    91   46   47 1    
    92   46  108 1    
    93   46  109 1    
    94   47   48 1    
    95   48  110 1    
    96   48  111 1    
    97   49   50 am   BACKBONE|DICT|INTERRES
    98   49  112 1    
    99   50   51 2    
   100   50   52 1    
   101   52   53 1    
   102   52   54 1    
   103   52  113 1    
   104   53  114 1    
   105   53  115 1    
   106   53  116 1    
   107   54   55 am   BACKBONE|DICT|INTERRES
   108   54  117 1    
   109   55   56 2    
   110   55   57 1    
   111   57   58 1    
   112   57   59 1    
   113   57  118 1    
   114   58  119 1    
   115   58  120 1    
   116   58  121 1    
   117   59   60 am   BACKBONE|DICT|INTERRES
   118   59  122 1    
   119   60   61 2    
   120   60   62 1    
   121   62   63 1    
   122   62   64 1    
   123   62  123 1    
   124   63  124 1    
   125   63  125 1    
   126   63  126 1    
   127   64   65 am   BACKBONE|DICT|INTERRES
   128   64  127 1    
   129   65   66 2    
@<TRIPOS>SUBSTRUCTURE
     1 UNK         1 GROUP             0       ****    0 ROOT    
