@<TRIPOS>MOLECULE
3R134
127   129    1
SMALL
USER_CHARGES


@<TRIPOS>ATOM
      1 CA         37.3390  -43.5853  -54.1692 C.3       0 UNK        -0.1968 
      2 C          36.1629  -44.5374  -54.0068 C.2       0 UNK         0.4852 
      3 O          35.6239  -44.6483  -52.9054 O.2       0 UNK        -0.5359 
      4 N          35.7705  -45.2110  -55.0985 N.am      1 UNK        -0.4300 
      5 CA         34.6705  -46.1811  -55.1962 C.3       1 UNK         0.0863 
      6 C6         33.2636  -45.5703  -54.9580 C.3       11 UNK        -0.0953 
      7 S7         32.8893  -44.2582  -56.1671 S.3       11 UNK        -0.2369 
      8 C8         32.6196  -42.8277  -55.0763 C.3       11 UNK         0.0226 
      9 C9         31.2745  -42.9121  -54.3703 C.ar      11 UNK        -0.0699 
     10 C10        31.2026  -43.1481  -52.9943 C.ar      11 UNK        -0.0804 
     11 C11        29.9618  -43.2143  -52.3522 C.ar      11 UNK        -0.0871 
     12 C12        28.7904  -43.0432  -53.0954 C.ar      11 UNK        -0.1008 
     13 C13        28.8492  -42.8216  -54.4746 C.ar      11 UNK        -0.0735 
     14 C14        30.0956  -42.7443  -55.1015 C.ar      11 UNK        -0.0945 
     15 C15        27.5784  -42.6380  -55.2929 C.3       11 UNK         0.0169 
     16 S16        26.3659  -43.9703  -55.0187 S.3       11 UNK        -0.2669 
     17 C17        25.2349  -43.6772  -56.4233 C.3       11 UNK        -0.0850 
     18 CA         25.0707  -44.9180  -57.3488 C.3       10 UNK         0.0855 
     19 C          24.0883  -44.6594  -58.5315 C.2       10 UNK         0.5543 
     20 N          24.0479  -45.5163  -59.5426 N.am      10 UNK        -0.7343 
     21 O          23.3414  -43.6830  -58.5343 O.2       10 UNK        -0.5027 
     22 N          26.3565  -45.5183  -57.7463 N.am      10 UNK        -0.4495 
     23 C          27.2910  -44.9608  -58.5297 C.2       10 UNK         0.4903 
     24 O          27.1797  -43.8583  -59.0662 O.2       10 UNK        -0.4860 
     25 CA         28.5791  -45.7725  -58.7445 C.3       9 UNK         0.0227 
     26 CB         29.5463  -45.5672  -57.5661 C.3       9 UNK        -0.1964 
     27 N          28.2786  -47.1976  -58.8843 N.am      9 UNK        -0.4231 
     28 C          28.1004  -47.8301  -60.0532 C.2       9 UNK         0.5014 
     29 O          28.3022  -47.3133  -61.1531 O.2       9 UNK        -0.5270 
     30 CA         27.5935  -49.2858  -59.9940 C.3       8 UNK         0.0284 
     31 CB         28.7772  -50.2664  -59.9560 C.3       8 UNK        -0.1977 
     32 N          26.7103  -49.5497  -58.8541 N.am      8 UNK        -0.4342 
     33 C          25.5333  -48.9451  -58.6378 C.2       8 UNK         0.5039 
     34 O          25.0026  -48.1831  -59.4447 O.2       8 UNK        -0.5547 
     35 CA         24.8523  -49.1792  -57.2750 C.3       7 UNK         0.0281 
     36 CB         23.7236  -50.2133  -57.4134 C.3       7 UNK        -0.1963 
     37 N          25.7572  -49.5912  -56.1926 N.am      7 UNK        -0.4444 
     38 C          26.8319  -48.9137  -55.7650 C.2       7 UNK         0.5104 
     39 O          27.2198  -47.8565  -56.2686 O.2       7 UNK        -0.5100 
     40 CA         27.6512  -49.5944  -54.6568 C.3       6 UNK         0.0396 
     41 CB         28.4682  -50.7563  -55.2451 C.3       6 UNK        -0.1801 
     42 N          28.5705  -48.6792  -53.9796 N.am      6 UNK        -0.4747 
     43 C          28.2152  -47.6973  -53.1383 C.2       6 UNK         0.5012 
     44 O          27.0443  -47.4420  -52.8491 O.2       6 UNK        -0.5003 
     45 CA         29.3736  -46.9032  -52.4860 C.3       5 UNK         0.0782 
     46 C46        28.9175  -46.1124  -51.2239 C.3       11 UNK        -0.0868 
     47 S47        30.2790  -45.1863  -50.4277 S.3       11 UNK        -0.2515 
     48 C48        29.8849  -43.4619  -50.8537 C.3       11 UNK         0.0199 
     49 N          30.5573  -47.7480  -52.2424 N.am      5 UNK        -0.4607 
     50 C          30.6331  -48.7770  -51.3846 C.2       4 UNK         0.5031 
     51 O          29.6758  -49.2298  -50.7544 O.2       4 UNK        -0.5119 
     52 CA         32.0352  -49.3774  -51.2001 C.3       4 UNK         0.0263 
     53 CB         32.1084  -50.4519  -50.0926 C.3       4 UNK        -0.1967 
     54 N          32.5986  -49.8601  -52.4645 N.am      4 UNK        -0.4237 
     55 C          32.2210  -50.9262  -53.1897 C.2       3 UNK         0.4908 
     56 O          31.2774  -51.6585  -52.8928 O.2       3 UNK        -0.5102 
     57 CA         33.0256  -51.2476  -54.4704 C.3       3 UNK         0.0241 
     58 CB         32.1506  -51.0673  -55.7225 C.3       3 UNK        -0.1971 
     59 N          34.2430  -50.4468  -54.6299 N.am      3 UNK        -0.4139 
     60 C          35.3457  -50.5385  -53.8727 C.2       2 UNK         0.5016 
     61 O          35.5250  -51.4214  -53.0335 O.2       2 UNK        -0.5319 
     62 CA         36.4113  -49.4354  -54.0444 C.3       2 UNK         0.0286 
     63 CB         37.6339  -49.9844  -54.7980 C.3       2 UNK        -0.1963 
     64 N          35.9489  -48.2087  -54.7145 N.am      2 UNK        -0.4790 
     65 C          34.9398  -47.4177  -54.3159 C.2       1 UNK         0.5024 
     66 O          34.2398  -47.6505  -53.3278 O.2       1 UNK        -0.4888 
     67 H67        37.0374  -42.5706  -53.9108 H         1 UNK         0.0892 
     68 H68        38.1528  -43.8783  -53.5064 H         1 UNK         0.0892 
     69 H69        37.7203  -43.5753  -55.1901 H         1 UNK         0.0892 
     70 H70        36.2711  -45.0551  -55.9623 H         1 UNK         0.3107 
     71 H71        34.6837  -46.5429  -56.2260 H         1 UNK         0.0773 
     72 H72        32.4916  -46.3349  -55.0618 H         1 UNK         0.0680 
     73 H73        33.1726  -45.1854  -53.9412 H         1 UNK         0.0680 
     74 H74        32.6521  -41.9172  -55.6762 H         1 UNK         0.0650 
     75 H75        33.4395  -42.7533  -54.3600 H         1 UNK         0.0650 
     76 H76        32.1102  -43.2827  -52.4212 H         1 UNK         0.1397 
     77 H77        27.8280  -43.0909  -52.6041 H         1 UNK         0.1363 
     78 H78        30.1550  -42.5566  -56.1646 H         1 UNK         0.1355 
     79 H79        27.1236  -41.6794  -55.0401 H         1 UNK         0.0707 
     80 H80        27.8228  -42.5995  -56.3558 H         1 UNK         0.0707 
     81 H81        25.5749  -42.8193  -57.0059 H         1 UNK         0.1034 
     82 H82        24.2668  -43.3874  -56.0111 H         1 UNK         0.1034 
     83 H83        24.5790  -45.6847  -56.7494 H         1 UNK         0.0482 
     84 H84        24.5833  -46.3817  -59.5207 H         1 UNK         0.3460 
     85 H85        23.4117  -45.3456  -60.3042 H         1 UNK         0.3460 
     86 H86        26.5779  -46.4001  -57.2950 H         1 UNK         0.2989 
     87 H87        29.0682  -45.4044  -59.6488 H         1 UNK         0.0559 
     88 H88        29.8386  -44.5204  -57.4880 H         1 UNK         0.0848 
     89 H89        30.4606  -46.1468  -57.6937 H         1 UNK         0.0848 
     90 H90        29.0989  -45.8511  -56.6122 H         1 UNK         0.0848 
     91 H91        28.0493  -47.6868  -58.0247 H         1 UNK         0.3144 
     92 H92        27.0214  -49.4716  -60.9055 H         1 UNK         0.0727 
     93 H93        28.4379  -51.3016  -59.9998 H         1 UNK         0.0790 
     94 H94        29.3754  -50.1453  -59.0518 H         1 UNK         0.0790 
     95 H95        29.4401  -50.1091  -60.8081 H         1 UNK         0.0790 
     96 H96        27.0556  -50.1798  -58.1458 H         1 UNK         0.3215 
     97 H97        24.4068  -48.2280  -56.9770 H         1 UNK         0.0863 
     98 H98        24.1084  -51.1990  -57.6780 H         1 UNK         0.0808 
     99 H99        23.0185  -49.9194  -58.1926 H         1 UNK         0.0808 
    100 H100       23.1558  -50.3097  -56.4878 H         1 UNK         0.0808 
    101 H101       25.5267  -50.4588  -55.7287 H         1 UNK         0.3118 
    102 H102       26.9591  -49.9922  -53.9116 H         1 UNK         0.0546 
    103 H103       29.0471  -51.2628  -54.4727 H         1 UNK         0.0828 
    104 H104       29.1598  -50.4126  -56.0152 H         1 UNK         0.0828 
    105 H105       27.8226  -51.5086  -55.6997 H         1 UNK         0.0828 
    106 H106       29.5541  -48.8158  -54.1553 H         1 UNK         0.3005 
    107 H107       29.6730  -46.1662  -53.2340 H         1 UNK         0.1257 
    108 H108       28.4989  -46.7915  -50.4794 H         1 UNK         0.0775 
    109 H109       28.1131  -45.4198  -51.4770 H         1 UNK         0.0775 
    110 H110       28.8969  -43.2101  -50.4647 H         1 UNK         0.0840 
    111 H111       30.5886  -42.8028  -50.3431 H         1 UNK         0.0840 
    112 H112       31.4070  -47.4519  -52.7018 H         1 UNK         0.2987 
    113 H113       32.6769  -48.5532  -50.8837 H         1 UNK         0.0785 
    114 H114       33.1228  -50.8337  -49.9775 H         1 UNK         0.0798 
    115 H115       31.8066  -50.0360  -49.1306 H         1 UNK         0.0798 
    116 H116       31.4519  -51.2982  -50.2961 H         1 UNK         0.0798 
    117 H117       33.3484  -49.2807  -52.8322 H         1 UNK         0.3079 
    118 H118       33.3212  -52.2970  -54.4076 H         1 UNK         0.0794 
    119 H119       31.2808  -51.7239  -55.6850 H         1 UNK         0.0786 
    120 H120       32.6986  -51.3187  -56.6308 H         1 UNK         0.0786 
    121 H121       31.7878  -50.0433  -55.8200 H         1 UNK         0.0786 
    122 H122       34.2051  -49.6989  -55.3063 H         1 UNK         0.3032 
    123 H123       36.7285  -49.1525  -53.0381 H         1 UNK         0.1094 
    124 H124       37.3864  -50.2564  -55.8249 H         1 UNK         0.0794 
    125 H125       38.4438  -49.2551  -54.8279 H         1 UNK         0.0794 
    126 H126       38.0262  -50.8781  -54.3103 H         1 UNK         0.0794 
    127 H127       36.4707  -47.9322  -55.5347 H         1 UNK         0.3016 
@<TRIPOS>BOND
     1    1    2 1    
     2    1   67 1    
     3    1   68 1    
     4    1   69 1    
     5    2    3 2    
     6    2    4 am   BACKBONE|DICT|INTERRES
     7    4    5 1    
     8    4   70 1    
     9    5    6 1    
    10    5   65 1    
    11    5   71 1    
    12    6    7 1    
    13    6   72 1    
    14    6   73 1    
    15    7    8 1    
    16    8    9 1    
    17    8   74 1    
    18    8   75 1    
    19    9   10 ar   
    20    9   14 ar   
    21   10   11 ar   
    22   10   76 1    
    23   11   12 ar   
    24   11   48 1    
    25   12   13 ar   
    26   12   77 1    
    27   13   14 ar   
    28   13   15 1    
    29   14   78 1    
    30   15   16 1    
    31   15   79 1    
    32   15   80 1    
    33   16   17 1    
    34   17   18 1    
    35   17   81 1    
    36   17   82 1    
    37   18   19 1    
    38   18   22 1    
    39   18   83 1    
    40   19   20 am   BACKBONE|DICT|INTERRES
    41   19   21 2    
    42   20   84 1    
    43   20   85 1    
    44   22   23 am   BACKBONE|DICT|INTERRES
    45   22   86 1    
    46   23   24 2    
    47   23   25 1    
    48   25   26 1    
    49   25   27 1    
    50   25   87 1    
    51   26   88 1    
    52   26   89 1    
    53   26   90 1    
    54   27   28 am   BACKBONE|DICT|INTERRES
    55   27   91 1    
    56   28   29 2    
    57   28   30 1    
    58   30   31 1    
    59   30   32 1    
    60   30   92 1    
    61   31   93 1    
    62   31   94 1    
    63   31   95 1    
    64   32   33 am   BACKBONE|DICT|INTERRES
    65   32   96 1    
    66   33   34 2    
    67   33   35 1    
    68   35   36 1    
    69   35   37 1    
    70   35   97 1    
    71   36   98 1    
    72   36   99 1    
    73   36  100 1    
    74   37   38 am   BACKBONE|DICT|INTERRES
    75   37  101 1    
    76   38   39 2    
    77   38   40 1    
    78   40   41 1    
    79   40   42 1    
    80   40  102 1    
    81   41  103 1    
    82   41  104 1    
    83   41  105 1    
    84   42   43 am   BACKBONE|DICT|INTERRES
    85   42  106 1    
    86   43   44 2    
    87   43   45 1    
    88   45   46 1    
    89   45   49 1    
    90   45  107 1    
    91   46   47 1    
    92   46  108 1    
    93   46  109 1    
    94   47   48 1    
    95   48  110 1    
    96   48  111 1    
    97   49   50 am   BACKBONE|DICT|INTERRES
    98   49  112 1    
    99   50   51 2    
   100   50   52 1    
   101   52   53 1    
   102   52   54 1    
   103   52  113 1    
   104   53  114 1    
   105   53  115 1    
   106   53  116 1    
   107   54   55 am   BACKBONE|DICT|INTERRES
   108   54  117 1    
   109   55   56 2    
   110   55   57 1    
   111   57   58 1    
   112   57   59 1    
   113   57  118 1    
   114   58  119 1    
   115   58  120 1    
   116   58  121 1    
   117   59   60 am   BACKBONE|DICT|INTERRES
   118   59  122 1    
   119   60   61 2    
   120   60   62 1    
   121   62   63 1    
   122   62   64 1    
   123   62  123 1    
   124   63  124 1    
   125   63  125 1    
   126   63  126 1    
   127   64   65 am   BACKBONE|DICT|INTERRES
   128   64  127 1    
   129   65   66 2    
@<TRIPOS>SUBSTRUCTURE
     1 UNK         1 GROUP             0       ****    0 ROOT    
