@<TRIPOS>MOLECULE
3R134
127   129    1
SMALL
USER_CHARGES


@<TRIPOS>ATOM
      1 CA         37.0624  -49.0970  -56.9703 C.3       0 UNK        -0.1968 
      2 C          35.7154  -48.6652  -56.4117 C.2       0 UNK         0.4852 
      3 O          35.0907  -49.4275  -55.6749 O.2       0 UNK        -0.5359 
      4 N          35.2724  -47.4426  -56.7412 N.am      1 UNK        -0.4300 
      5 CA         33.9916  -46.8444  -56.3346 C.3       1 UNK         0.0863 
      6 C6         33.8311  -45.4298  -56.9448 C.3       11 UNK        -0.0953 
      7 S7         32.0962  -44.8799  -57.0555 S.3       11 UNK        -0.2369 
      8 C8         32.0243  -43.5349  -55.8294 C.3       11 UNK         0.0226 
      9 C9         31.0092  -43.8276  -54.7357 C.ar      11 UNK        -0.0699 
     10 C10        31.4248  -44.1432  -53.4392 C.ar      11 UNK        -0.0804 
     11 C11        30.4836  -44.3849  -52.4332 C.ar      11 UNK        -0.0871 
     12 C12        29.1187  -44.2848  -52.7251 C.ar      11 UNK        -0.1008 
     13 C13        28.6917  -44.0001  -54.0243 C.ar      11 UNK        -0.0735 
     14 C14        29.6435  -43.7736  -55.0219 C.ar      11 UNK        -0.0945 
     15 C15        27.2095  -44.0139  -54.3716 C.3       11 UNK         0.0169 
     16 S16        26.6984  -42.5119  -55.2761 S.3       11 UNK        -0.2669 
     17 C17        25.2498  -43.0575  -56.2570 C.3       11 UNK        -0.0850 
     18 CA         25.4325  -44.3591  -57.0985 C.3       10 UNK         0.0855 
     19 C          24.1897  -44.6965  -57.9763 C.2       10 UNK         0.5543 
     20 N          24.3500  -45.3447  -59.1249 N.am      10 UNK        -0.7343 
     21 O          23.0596  -44.3952  -57.5999 O.2       10 UNK        -0.5027 
     22 N          26.7176  -44.4361  -57.8147 N.am      10 UNK        -0.4495 
     23 C          27.1344  -43.6223  -58.7964 C.2       10 UNK         0.4903 
     24 O          26.5076  -42.6329  -59.1768 O.2       10 UNK        -0.4860 
     25 CA         28.4627  -43.9702  -59.5024 C.3       9 UNK         0.0227 
     26 CB         29.5553  -42.9408  -59.1691 C.3       9 UNK        -0.1964 
     27 N          28.9573  -45.3218  -59.2159 N.am      9 UNK        -0.4231 
     28 C          28.3748  -46.4483  -59.6505 C.2       9 UNK         0.5014 
     29 O          27.3837  -46.4612  -60.3842 O.2       9 UNK        -0.5270 
     30 CA         28.9528  -47.7920  -59.1645 C.3       8 UNK         0.0284 
     31 CB         30.2411  -47.6765  -58.3187 C.3       8 UNK        -0.1977 
     32 N          27.9390  -48.5703  -58.4442 N.am      8 UNK        -0.4342 
     33 C          27.2502  -48.1885  -57.3577 C.2       8 UNK         0.5039 
     34 O          27.3932  -47.0968  -56.8026 O.2       8 UNK        -0.5547 
     35 CA         26.2138  -49.1746  -56.7984 C.3       7 UNK         0.0281 
     36 CB         26.1688  -50.5449  -57.5106 C.3       7 UNK        -0.1963 
     37 N          26.4777  -49.3661  -55.3759 N.am      7 UNK        -0.4444 
     38 C          25.5456  -49.5984  -54.4432 C.2       7 UNK         0.5104 
     39 O          24.3418  -49.6810  -54.6921 O.2       7 UNK        -0.5100 
     40 CA         26.0137  -49.7974  -52.9864 C.3       6 UNK         0.0396 
     41 CB         25.9118  -51.2796  -52.5905 C.3       6 UNK        -0.1801 
     42 N          27.3798  -49.3347  -52.7338 N.am      6 UNK        -0.4747 
     43 C          27.7593  -48.0498  -52.6910 C.2       6 UNK         0.5012 
     44 O          26.9679  -47.1093  -52.7609 O.2       6 UNK        -0.5003 
     45 CA         29.2697  -47.7578  -52.5468 C.3       5 UNK         0.0782 
     46 C46        29.5767  -47.2696  -51.1076 C.3       11 UNK        -0.0868 
     47 S47        31.2579  -46.5826  -50.9406 S.3       11 UNK        -0.2515 
     48 C48        30.9425  -44.7897  -51.0407 C.3       11 UNK         0.0199 
     49 N          30.1550  -48.8641  -52.9439 N.am      5 UNK        -0.4607 
     50 C          30.2039  -49.4423  -54.1531 C.2       4 UNK         0.5031 
     51 O          29.4049  -49.1970  -55.0559 O.2       4 UNK        -0.5119 
     52 CA         31.3128  -50.4812  -54.3809 C.3       4 UNK         0.0263 
     53 CB         31.6524  -50.6648  -55.8720 C.3       4 UNK        -0.1967 
     54 N          32.5292  -50.1095  -53.6587 N.am      4 UNK        -0.4237 
     55 C          33.2859  -50.9426  -52.9300 C.2       3 UNK         0.4908 
     56 O          32.9869  -52.1192  -52.7209 O.2       3 UNK        -0.5102 
     57 CA         34.5986  -50.3966  -52.3350 C.3       3 UNK         0.0241 
     58 CB         35.7986  -51.2616  -52.7610 C.3       3 UNK        -0.1971 
     59 N          34.8499  -49.0142  -52.7454 N.am      3 UNK        -0.4139 
     60 C          34.7403  -47.9420  -51.9492 C.2       2 UNK         0.5016 
     61 O          34.5194  -48.0150  -50.7401 O.2       2 UNK        -0.5319 
     62 CA         34.9024  -46.5473  -52.5899 C.3       2 UNK         0.0286 
     63 CB         36.2121  -45.8889  -52.1272 C.3       2 UNK        -0.1963 
     64 N          34.8599  -46.5321  -54.0568 N.am      2 UNK        -0.4790 
     65 C          33.7883  -46.8374  -54.8036 C.2       1 UNK         0.5024 
     66 O          32.7091  -47.1842  -54.3275 O.2       1 UNK        -0.4888 
     67 H67        37.7508  -49.3203  -56.1557 H         1 UNK         0.0892 
     68 H68        36.9451  -49.9969  -57.5733 H         1 UNK         0.0892 
     69 H69        37.5130  -48.3260  -57.5948 H         1 UNK         0.0892 
     70 H70        35.8438  -46.8697  -57.3459 H         1 UNK         0.3107 
     71 H71        33.2145  -47.4871  -56.7543 H         1 UNK         0.0773 
     72 H72        34.2013  -45.4315  -57.9713 H         1 UNK         0.0680 
     73 H73        34.4467  -44.6978  -56.4200 H         1 UNK         0.0680 
     74 H74        31.7437  -42.6133  -56.3407 H         1 UNK         0.0650 
     75 H75        33.0058  -43.3478  -55.3936 H         1 UNK         0.0650 
     76 H76        32.4799  -44.2173  -53.2159 H         1 UNK         0.1397 
     77 H77        28.3866  -44.4792  -51.9534 H         1 UNK         0.1363 
     78 H78        29.3141  -43.5626  -56.0279 H         1 UNK         0.1355 
     79 H79        27.0394  -44.9117  -54.9618 H         1 UNK         0.0707 
     80 H80        26.5947  -44.1133  -53.4758 H         1 UNK         0.0707 
     81 H81        24.4087  -43.1750  -55.5715 H         1 UNK         0.1034 
     82 H82        24.9781  -42.2306  -56.9154 H         1 UNK         0.1034 
     83 H83        25.4518  -45.1915  -56.3972 H         1 UNK         0.0482 
     84 H84        25.2732  -45.6038  -59.4425 H         1 UNK         0.3460 
     85 H85        23.5419  -45.5678  -59.6838 H         1 UNK         0.3460 
     86 H86        27.2709  -45.2557  -57.5818 H         1 UNK         0.2989 
     87 H87        28.2721  -43.9104  -60.5760 H         1 UNK         0.0559 
     88 H88        29.8070  -42.9395  -58.1105 H         1 UNK         0.0848 
     89 H89        29.2306  -41.9313  -59.4245 H         1 UNK         0.0848 
     90 H90        30.4697  -43.1357  -59.7296 H         1 UNK         0.0848 
     91 H91        29.7490  -45.3989  -58.5923 H         1 UNK         0.3144 
     92 H92        29.1998  -48.3572  -60.0643 H         1 UNK         0.0727 
     93 H93        30.6277  -48.6643  -58.0697 H         1 UNK         0.0790 
     94 H94        30.0727  -47.1524  -57.3766 H         1 UNK         0.0790 
     95 H95        31.0306  -47.1563  -58.8623 H         1 UNK         0.0790 
     96 H96        27.7194  -49.4720  -58.8425 H         1 UNK         0.3215 
     97 H97        25.2431  -48.6894  -56.9221 H         1 UNK         0.0863 
     98 H98        25.3973  -51.1834  -57.0795 H         1 UNK         0.0808 
     99 H99        27.1172  -51.0776  -57.4273 H         1 UNK         0.0808 
    100 H100       25.9287  -50.4380  -58.5692 H         1 UNK         0.0808 
    101 H101       27.4507  -49.2496  -55.0987 H         1 UNK         0.3118 
    102 H102       25.3370  -49.2274  -52.3464 H         1 UNK         0.0546 
    103 H103       26.5713  -51.9050  -53.1934 H         1 UNK         0.0828 
    104 H104       24.8956  -51.6518  -52.7288 H         1 UNK         0.0828 
    105 H105       26.1687  -51.4303  -51.5419 H         1 UNK         0.0828 
    106 H106       28.0972  -50.0420  -52.6678 H         1 UNK         0.3005 
    107 H107       29.4795  -46.9457  -53.2458 H         1 UNK         0.1257 
    108 H108       29.4751  -48.0943  -50.3999 H         1 UNK         0.0775 
    109 H109       28.8592  -46.5143  -50.7820 H         1 UNK         0.0775 
    110 H110       30.2050  -44.5010  -50.2901 H         1 UNK         0.0840 
    111 H111       31.8592  -44.2559  -50.7857 H         1 UNK         0.0840 
    112 H112       30.8565  -49.1222  -52.2657 H         1 UNK         0.2987 
    113 H113       30.9218  -51.4264  -54.0006 H         1 UNK         0.0785 
    114 H114       32.4177  -51.4283  -56.0115 H         1 UNK         0.0798 
    115 H115       32.0243  -49.7387  -56.3103 H         1 UNK         0.0798 
    116 H116       30.7771  -50.9739  -56.4445 H         1 UNK         0.0798 
    117 H117       32.8098  -49.1388  -53.7622 H         1 UNK         0.3079 
    118 H118       34.5040  -50.4624  -51.2495 H         1 UNK         0.0794 
    119 H119       35.6799  -52.2923  -52.4246 H         1 UNK         0.0786 
    120 H120       36.7280  -50.8877  -52.3316 H         1 UNK         0.0786 
    121 H121       35.9151  -51.2840  -53.8450 H         1 UNK         0.0786 
    122 H122       35.0256  -48.8818  -53.7374 H         1 UNK         0.3032 
    123 H123       34.0681  -45.9428  -52.2279 H         1 UNK         0.1094 
    124 H124       36.2943  -44.8659  -52.4942 H         1 UNK         0.0794 
    125 H125       36.2642  -45.8439  -51.0383 H         1 UNK         0.0794 
    126 H126       37.0856  -46.4430  -52.4721 H         1 UNK         0.0794 
    127 H127       35.7193  -46.2948  -54.5316 H         1 UNK         0.3016 
@<TRIPOS>BOND
     1    1    2 1    
     2    1   67 1    
     3    1   68 1    
     4    1   69 1    
     5    2    3 2    
     6    2    4 am   BACKBONE|DICT|INTERRES
     7    4    5 1    
     8    4   70 1    
     9    5    6 1    
    10    5   65 1    
    11    5   71 1    
    12    6    7 1    
    13    6   72 1    
    14    6   73 1    
    15    7    8 1    
    16    8    9 1    
    17    8   74 1    
    18    8   75 1    
    19    9   10 ar   
    20    9   14 ar   
    21   10   11 ar   
    22   10   76 1    
    23   11   12 ar   
    24   11   48 1    
    25   12   13 ar   
    26   12   77 1    
    27   13   14 ar   
    28   13   15 1    
    29   14   78 1    
    30   15   16 1    
    31   15   79 1    
    32   15   80 1    
    33   16   17 1    
    34   17   18 1    
    35   17   81 1    
    36   17   82 1    
    37   18   19 1    
    38   18   22 1    
    39   18   83 1    
    40   19   20 am   BACKBONE|DICT|INTERRES
    41   19   21 2    
    42   20   84 1    
    43   20   85 1    
    44   22   23 am   BACKBONE|DICT|INTERRES
    45   22   86 1    
    46   23   24 2    
    47   23   25 1    
    48   25   26 1    
    49   25   27 1    
    50   25   87 1    
    51   26   88 1    
    52   26   89 1    
    53   26   90 1    
    54   27   28 am   BACKBONE|DICT|INTERRES
    55   27   91 1    
    56   28   29 2    
    57   28   30 1    
    58   30   31 1    
    59   30   32 1    
    60   30   92 1    
    61   31   93 1    
    62   31   94 1    
    63   31   95 1    
    64   32   33 am   BACKBONE|DICT|INTERRES
    65   32   96 1    
    66   33   34 2    
    67   33   35 1    
    68   35   36 1    
    69   35   37 1    
    70   35   97 1    
    71   36   98 1    
    72   36   99 1    
    73   36  100 1    
    74   37   38 am   BACKBONE|DICT|INTERRES
    75   37  101 1    
    76   38   39 2    
    77   38   40 1    
    78   40   41 1    
    79   40   42 1    
    80   40  102 1    
    81   41  103 1    
    82   41  104 1    
    83   41  105 1    
    84   42   43 am   BACKBONE|DICT|INTERRES
    85   42  106 1    
    86   43   44 2    
    87   43   45 1    
    88   45   46 1    
    89   45   49 1    
    90   45  107 1    
    91   46   47 1    
    92   46  108 1    
    93   46  109 1    
    94   47   48 1    
    95   48  110 1    
    96   48  111 1    
    97   49   50 am   BACKBONE|DICT|INTERRES
    98   49  112 1    
    99   50   51 2    
   100   50   52 1    
   101   52   53 1    
   102   52   54 1    
   103   52  113 1    
   104   53  114 1    
   105   53  115 1    
   106   53  116 1    
   107   54   55 am   BACKBONE|DICT|INTERRES
   108   54  117 1    
   109   55   56 2    
   110   55   57 1    
   111   57   58 1    
   112   57   59 1    
   113   57  118 1    
   114   58  119 1    
   115   58  120 1    
   116   58  121 1    
   117   59   60 am   BACKBONE|DICT|INTERRES
   118   59  122 1    
   119   60   61 2    
   120   60   62 1    
   121   62   63 1    
   122   62   64 1    
   123   62  123 1    
   124   63  124 1    
   125   63  125 1    
   126   63  126 1    
   127   64   65 am   BACKBONE|DICT|INTERRES
   128   64  127 1    
   129   65   66 2    
@<TRIPOS>SUBSTRUCTURE
     1 UNK         1 GROUP             0       ****    0 ROOT    
