@<TRIPOS>MOLECULE
3R134
127   129    1
SMALL
USER_CHARGES


@<TRIPOS>ATOM
      1 CA         37.9681  -47.5743  -52.2744 C.3       0 UNK        -0.1968 
      2 C          36.6438  -47.4411  -53.0105 C.2       0 UNK         0.4852 
      3 O          36.0235  -48.4527  -53.3429 O.2       0 UNK        -0.5359 
      4 N          36.1896  -46.2015  -53.2493 N.am      1 UNK        -0.4300 
      5 CA         34.9542  -45.8743  -53.9774 C.3       1 UNK         0.0863 
      6 C6         34.8750  -44.3713  -54.3375 C.3       11 UNK        -0.0953 
      7 S7         34.7398  -43.2636  -52.8901 S.3       11 UNK        -0.2369 
      8 C8         33.6804  -41.9294  -53.5376 C.3       11 UNK         0.0226 
      9 C9         32.2760  -42.4081  -53.8834 C.ar      11 UNK        -0.0699 
     10 C10        31.3790  -42.7527  -52.8682 C.ar      11 UNK        -0.0804 
     11 C11        30.0829  -43.1816  -53.1738 C.ar      11 UNK        -0.0871 
     12 C12        29.6886  -43.2582  -54.5153 C.ar      11 UNK        -0.1008 
     13 C13        30.5781  -42.9211  -55.5402 C.ar      11 UNK        -0.0735 
     14 C14        31.8680  -42.4913  -55.2181 C.ar      11 UNK        -0.0945 
     15 C15        30.1492  -43.0418  -56.9938 C.3       11 UNK         0.0169 
     16 S16        29.0209  -41.6961  -57.4730 S.3       11 UNK        -0.2669 
     17 C17        28.5427  -42.2103  -59.1615 C.3       11 UNK        -0.0850 
     18 CA         27.0834  -42.7523  -59.2389 C.3       10 UNK         0.0855 
     19 C          26.5984  -42.9720  -60.7059 C.2       10 UNK         0.5543 
     20 N          25.7973  -43.9908  -60.9951 N.am      10 UNK        -0.7343 
     21 O          26.9232  -42.1855  -61.5923 O.2       10 UNK        -0.5027 
     22 N          26.8462  -43.8868  -58.3275 N.am      10 UNK        -0.4495 
     23 C          27.4238  -45.0928  -58.3990 C.2       10 UNK         0.4903 
     24 O          28.2209  -45.4238  -59.2787 O.2       10 UNK        -0.4860 
     25 CA         27.1091  -46.0891  -57.2682 C.3       9 UNK         0.0227 
     26 CB         25.9810  -45.6507  -56.3066 C.3       9 UNK        -0.1964 
     27 N          26.8695  -47.4432  -57.7730 N.am      9 UNK        -0.4231 
     28 C          25.9258  -47.8217  -58.6478 C.2       9 UNK         0.5014 
     29 O          25.0754  -47.0585  -59.1112 O.2       9 UNK        -0.5270 
     30 CA         25.9305  -49.2901  -59.1143 C.3       8 UNK         0.0284 
     31 CB         26.4728  -49.3886  -60.5504 C.3       8 UNK        -0.1977 
     32 N          26.6977  -50.1995  -58.2570 N.am      8 UNK        -0.4342 
     33 C          26.2997  -50.6520  -57.0605 C.2       8 UNK         0.5039 
     34 O          25.2402  -50.3181  -56.5275 O.2       8 UNK        -0.5547 
     35 CA         27.2129  -51.6648  -56.3459 C.3       7 UNK         0.0281 
     36 CB         28.4565  -52.0870  -57.1573 C.3       7 UNK        -0.1963 
     37 N          27.6535  -51.0922  -55.0780 N.am      7 UNK        -0.4444 
     38 C          27.2221  -51.4526  -53.8630 C.2       7 UNK         0.5104 
     39 O          26.4091  -52.3574  -53.6664 O.2       7 UNK        -0.5100 
     40 CA         27.8035  -50.7027  -52.6458 C.3       6 UNK         0.0396 
     41 CB         28.7723  -51.6126  -51.8731 C.3       6 UNK        -0.1801 
     42 N          28.5000  -49.4585  -52.9818 N.am      6 UNK        -0.4747 
     43 C          27.9135  -48.3351  -53.4181 C.2       6 UNK         0.5012 
     44 O          26.6955  -48.1997  -53.5312 O.2       6 UNK        -0.5003 
     45 CA         28.8569  -47.1909  -53.8456 C.3       5 UNK         0.0782 
     46 C46        29.2583  -46.3049  -52.6392 C.3       11 UNK        -0.0868 
     47 S47        28.0475  -44.9707  -52.3577 S.3       11 UNK        -0.2515 
     48 C48        29.1242  -43.5306  -52.0360 C.3       11 UNK         0.0199 
     49 N          30.0293  -47.6671  -54.5917 N.am      5 UNK        -0.4607 
     50 C          30.0010  -48.3851  -55.7246 C.2       4 UNK         0.5031 
     51 O          28.9684  -48.7118  -56.3074 O.2       4 UNK        -0.5119 
     52 CA         31.3498  -48.8657  -56.2759 C.3       4 UNK         0.0263 
     53 CB         32.0310  -47.7622  -57.1016 C.3       4 UNK        -0.1967 
     54 N          32.2296  -49.3152  -55.1957 N.am      4 UNK        -0.4237 
     55 C          32.0790  -50.4775  -54.5416 C.2       3 UNK         0.4908 
     56 O          31.2577  -51.3385  -54.8564 O.2       3 UNK        -0.5102 
     57 CA         32.9703  -50.7082  -53.3087 C.3       3 UNK         0.0241 
     58 CB         34.3000  -51.3614  -53.7167 C.3       3 UNK        -0.1971 
     59 N          33.2323  -49.4760  -52.5590 N.am      3 UNK        -0.4139 
     60 C          32.2933  -48.7994  -51.8771 C.2       2 UNK         0.5016 
     61 O          31.1281  -49.1788  -51.7668 O.2       2 UNK        -0.5319 
     62 CA         32.6965  -47.4472  -51.2577 C.3       2 UNK         0.0286 
     63 CB         33.1591  -47.6392  -49.8055 C.3       2 UNK        -0.1963 
     64 N          33.7392  -46.7445  -52.0092 N.am      2 UNK        -0.4790 
     65 C          33.6628  -46.3921  -53.3018 C.2       1 UNK         0.5024 
     66 O          32.6429  -46.5327  -53.9763 O.2       1 UNK        -0.4888 
     67 H67        38.3987  -46.6035  -52.0296 H         1 UNK         0.0892 
     68 H68        37.8271  -48.1276  -51.3464 H         1 UNK         0.0892 
     69 H69        38.6844  -48.1178  -52.8898 H         1 UNK         0.0892 
     70 H70        36.7257  -45.4056  -52.9323 H         1 UNK         0.3107 
     71 H71        35.0156  -46.4158  -54.9241 H         1 UNK         0.0773 
     72 H72        34.0354  -44.2068  -55.0130 H         1 UNK         0.0680 
     73 H73        35.7610  -44.0793  -54.9032 H         1 UNK         0.0680 
     74 H74        34.1643  -41.4825  -54.4075 H         1 UNK         0.0650 
     75 H75        33.6136  -41.1402  -52.7874 H         1 UNK         0.0650 
     76 H76        31.6967  -42.6839  -51.8366 H         1 UNK         0.1397 
     77 H77        28.6876  -43.5796  -54.7677 H         1 UNK         0.1363 
     78 H78        32.5575  -42.2261  -56.0080 H         1 UNK         0.1355 
     79 H79        31.0177  -43.0331  -57.6543 H         1 UNK         0.0707 
     80 H80        29.6665  -44.0070  -57.1373 H         1 UNK         0.0707 
     81 H81        28.6542  -41.3340  -59.8025 H         1 UNK         0.1034 
     82 H82        29.2502  -42.9469  -59.5456 H         1 UNK         0.1034 
     83 H83        26.4348  -41.9587  -58.8664 H         1 UNK         0.0482 
     84 H84        25.4790  -44.1163  -61.9429 H         1 UNK         0.3460 
     85 H85        25.5347  -44.6537  -60.2809 H         1 UNK         0.3460 
     86 H86        26.1940  -43.7108  -57.5777 H         1 UNK         0.2989 
     87 H87        28.0312  -46.1475  -56.6934 H         1 UNK         0.0559 
     88 H88        26.2338  -44.7248  -55.7885 H         1 UNK         0.0848 
     89 H89        25.8120  -46.4038  -55.5366 H         1 UNK         0.0848 
     90 H90        25.0344  -45.4997  -56.8271 H         1 UNK         0.0848 
     91 H91        27.5371  -48.1385  -57.4489 H         1 UNK         0.3144 
     92 H92        24.8917  -49.6270  -59.1212 H         1 UNK         0.0727 
     93 H93        27.5139  -49.0686  -60.6114 H         1 UNK         0.0790 
     94 H94        25.8987  -48.7558  -61.2289 H         1 UNK         0.0790 
     95 H95        26.4092  -50.4081  -60.9314 H         1 UNK         0.0790 
     96 H96        27.5900  -50.5125  -58.6113 H         1 UNK         0.3215 
     97 H97        26.6116  -52.5594  -56.1716 H         1 UNK         0.0863 
     98 H98        29.0446  -52.8218  -56.6065 H         1 UNK         0.0808 
     99 H99        29.1164  -51.2462  -57.3732 H         1 UNK         0.0808 
    100 H100       28.1766  -52.5526  -58.1033 H         1 UNK         0.0808 
    101 H101       28.2699  -50.2914  -55.1523 H         1 UNK         0.3118 
    102 H102       26.9687  -50.4550  -51.9872 H         1 UNK         0.0546 
    103 H103       29.6386  -51.8817  -52.4791 H         1 UNK         0.0828 
    104 H104       28.2843  -52.5397  -51.5695 H         1 UNK         0.0828 
    105 H105       29.1363  -51.1271  -50.9674 H         1 UNK         0.0828 
    106 H106       29.5068  -49.4501  -52.8370 H         1 UNK         0.3005 
    107 H107       28.2935  -46.5757  -54.5457 H         1 UNK         0.1257 
    108 H108       30.2313  -45.8482  -52.8218 H         1 UNK         0.0775 
    109 H109       29.3758  -46.8860  -51.7223 H         1 UNK         0.0775 
    110 H110       28.4936  -42.6631  -51.8377 H         1 UNK         0.0840 
    111 H111       29.6793  -43.7230  -51.1163 H         1 UNK         0.0840 
    112 H112       30.9363  -47.3939  -54.2254 H         1 UNK         0.2987 
    113 H113       31.1585  -49.7115  -56.9400 H         1 UNK         0.0785 
    114 H114       31.4032  -47.4691  -57.9444 H         1 UNK         0.0798 
    115 H115       32.9824  -48.1028  -57.5103 H         1 UNK         0.0798 
    116 H116       32.2200  -46.8632  -56.5151 H         1 UNK         0.0798 
    117 H117       32.8971  -48.6430  -54.8442 H         1 UNK         0.3079 
    118 H118       32.4427  -51.3974  -52.6456 H         1 UNK         0.0794 
    119 H119       34.1275  -52.3070  -54.2324 H         1 UNK         0.0786 
    120 H120       34.9209  -51.5749  -52.8465 H         1 UNK         0.0786 
    121 H121       34.8747  -50.7232  -54.3892 H         1 UNK         0.0786 
    122 H122       34.1679  -49.0874  -52.6313 H         1 UNK         0.3032 
    123 H123       31.8104  -46.8110  -51.2516 H         1 UNK         0.1094 
    124 H124       33.3616  -46.6827  -49.3232 H         1 UNK         0.0794 
    125 H125       32.3908  -48.1410  -49.2152 H         1 UNK         0.0794 
    126 H126       34.0640  -48.2454  -49.7458 H         1 UNK         0.0794 
    127 H127       34.6163  -46.5891  -51.5340 H         1 UNK         0.3016 
@<TRIPOS>BOND
     1    1    2 1    
     2    1   67 1    
     3    1   68 1    
     4    1   69 1    
     5    2    3 2    
     6    2    4 am   BACKBONE|DICT|INTERRES
     7    4    5 1    
     8    4   70 1    
     9    5    6 1    
    10    5   65 1    
    11    5   71 1    
    12    6    7 1    
    13    6   72 1    
    14    6   73 1    
    15    7    8 1    
    16    8    9 1    
    17    8   74 1    
    18    8   75 1    
    19    9   10 ar   
    20    9   14 ar   
    21   10   11 ar   
    22   10   76 1    
    23   11   12 ar   
    24   11   48 1    
    25   12   13 ar   
    26   12   77 1    
    27   13   14 ar   
    28   13   15 1    
    29   14   78 1    
    30   15   16 1    
    31   15   79 1    
    32   15   80 1    
    33   16   17 1    
    34   17   18 1    
    35   17   81 1    
    36   17   82 1    
    37   18   19 1    
    38   18   22 1    
    39   18   83 1    
    40   19   20 am   BACKBONE|DICT|INTERRES
    41   19   21 2    
    42   20   84 1    
    43   20   85 1    
    44   22   23 am   BACKBONE|DICT|INTERRES
    45   22   86 1    
    46   23   24 2    
    47   23   25 1    
    48   25   26 1    
    49   25   27 1    
    50   25   87 1    
    51   26   88 1    
    52   26   89 1    
    53   26   90 1    
    54   27   28 am   BACKBONE|DICT|INTERRES
    55   27   91 1    
    56   28   29 2    
    57   28   30 1    
    58   30   31 1    
    59   30   32 1    
    60   30   92 1    
    61   31   93 1    
    62   31   94 1    
    63   31   95 1    
    64   32   33 am   BACKBONE|DICT|INTERRES
    65   32   96 1    
    66   33   34 2    
    67   33   35 1    
    68   35   36 1    
    69   35   37 1    
    70   35   97 1    
    71   36   98 1    
    72   36   99 1    
    73   36  100 1    
    74   37   38 am   BACKBONE|DICT|INTERRES
    75   37  101 1    
    76   38   39 2    
    77   38   40 1    
    78   40   41 1    
    79   40   42 1    
    80   40  102 1    
    81   41  103 1    
    82   41  104 1    
    83   41  105 1    
    84   42   43 am   BACKBONE|DICT|INTERRES
    85   42  106 1    
    86   43   44 2    
    87   43   45 1    
    88   45   46 1    
    89   45   49 1    
    90   45  107 1    
    91   46   47 1    
    92   46  108 1    
    93   46  109 1    
    94   47   48 1    
    95   48  110 1    
    96   48  111 1    
    97   49   50 am   BACKBONE|DICT|INTERRES
    98   49  112 1    
    99   50   51 2    
   100   50   52 1    
   101   52   53 1    
   102   52   54 1    
   103   52  113 1    
   104   53  114 1    
   105   53  115 1    
   106   53  116 1    
   107   54   55 am   BACKBONE|DICT|INTERRES
   108   54  117 1    
   109   55   56 2    
   110   55   57 1    
   111   57   58 1    
   112   57   59 1    
   113   57  118 1    
   114   58  119 1    
   115   58  120 1    
   116   58  121 1    
   117   59   60 am   BACKBONE|DICT|INTERRES
   118   59  122 1    
   119   60   61 2    
   120   60   62 1    
   121   62   63 1    
   122   62   64 1    
   123   62  123 1    
   124   63  124 1    
   125   63  125 1    
   126   63  126 1    
   127   64   65 am   BACKBONE|DICT|INTERRES
   128   64  127 1    
   129   65   66 2    
@<TRIPOS>SUBSTRUCTURE
     1 UNK         1 GROUP             0       ****    0 ROOT    
