@<TRIPOS>MOLECULE
3R134
127   129    1
SMALL
USER_CHARGES


@<TRIPOS>ATOM
      1 CA         35.6179  -46.9406  -49.1113 C.3       0 UNK        -0.1968 
      2 C          35.1899  -46.2206  -50.3810 C.2       0 UNK         0.4852 
      3 O          34.0805  -46.4506  -50.8649 O.2       0 UNK        -0.5359 
      4 N          36.0626  -45.3605  -50.9272 N.am      1 UNK        -0.4300 
      5 CA         35.8692  -44.6016  -52.1682 C.3       1 UNK         0.0863 
      6 C6         34.7344  -43.5472  -52.0427 C.3       11 UNK        -0.0953 
      7 S7         34.8600  -42.2353  -53.3013 S.3       11 UNK        -0.2369 
      8 C8         33.1959  -41.5042  -53.2202 C.3       11 UNK         0.0226 
      9 C9         32.1578  -42.3890  -53.8937 C.ar      11 UNK        -0.0699 
     10 C10        31.3172  -43.2032  -53.1300 C.ar      11 UNK        -0.0804 
     11 C11        30.3721  -44.0208  -53.7527 C.ar      11 UNK        -0.0871 
     12 C12        30.2678  -44.0193  -55.1464 C.ar      11 UNK        -0.1008 
     13 C13        31.0837  -43.1879  -55.9257 C.ar      11 UNK        -0.0735 
     14 C14        32.0308  -42.3821  -55.2858 C.ar      11 UNK        -0.0945 
     15 C15        31.0064  -43.1429  -57.4541 C.3       11 UNK         0.0169 
     16 S16        29.4947  -43.8438  -58.2008 S.3       11 UNK        -0.2669 
     17 C17        28.2182  -42.6744  -57.6081 C.3       11 UNK        -0.0850 
     18 CA         26.8237  -42.9005  -58.2520 C.3       10 UNK         0.0855 
     19 C          26.7664  -42.4356  -59.7358 C.2       10 UNK         0.5543 
     20 N          26.3509  -43.2705  -60.6828 N.am      10 UNK        -0.7343 
     21 O          27.0788  -41.2841  -60.0312 O.2       10 UNK        -0.5027 
     22 N          26.3603  -44.2809  -58.0595 N.am      10 UNK        -0.4495 
     23 C          25.4171  -44.7077  -57.2146 C.2       10 UNK         0.4903 
     24 O          24.8102  -43.9703  -56.4320 O.2       10 UNK        -0.4860 
     25 CA         25.0807  -46.2143  -57.2322 C.3       9 UNK         0.0227 
     26 CB         23.8870  -46.4956  -58.1651 C.3       9 UNK        -0.1964 
     27 N          26.2029  -47.1242  -57.5233 N.am      9 UNK        -0.4231 
     28 C          26.9302  -47.2417  -58.6466 C.2       9 UNK         0.5014 
     29 O          26.7710  -46.5377  -59.6456 O.2       9 UNK        -0.5270 
     30 CA         28.0428  -48.3024  -58.6563 C.3       8 UNK         0.0284 
     31 CB         29.3325  -47.7393  -58.0360 C.3       8 UNK        -0.1977 
     32 N          27.6752  -49.5474  -57.9790 N.am      8 UNK        -0.4342 
     33 C          26.7479  -50.4121  -58.4167 C.2       8 UNK         0.5039 
     34 O          26.0673  -50.2379  -59.4281 O.2       8 UNK        -0.5547 
     35 CA         26.5545  -51.6954  -57.5962 C.3       7 UNK         0.0281 
     36 CB         27.6613  -52.7149  -57.9143 C.3       7 UNK        -0.1963 
     37 N          26.5498  -51.4087  -56.1620 N.am      7 UNK        -0.4444 
     38 C          25.4459  -51.1691  -55.4412 C.2       7 UNK         0.5104 
     39 O          24.3026  -51.2333  -55.8939 O.2       7 UNK        -0.5100 
     40 CA         25.6422  -50.7905  -53.9599 C.3       6 UNK         0.0396 
     41 CB         25.5233  -52.0368  -53.0688 C.3       6 UNK        -0.1801 
     42 N          26.9167  -50.1200  -53.6849 N.am      6 UNK        -0.4747 
     43 C          27.2607  -48.9151  -54.1626 C.2       6 UNK         0.5012 
     44 O          26.5268  -48.2246  -54.8689 O.2       6 UNK        -0.5003 
     45 CA         28.6857  -48.4181  -53.8592 C.3       5 UNK         0.0782 
     46 C46        28.7224  -47.5708  -52.5666 C.3       11 UNK        -0.0868 
     47 S47        30.2007  -46.5036  -52.5471 S.3       11 UNK        -0.2515 
     48 C48        29.4438  -44.8918  -52.9249 C.3       11 UNK         0.0199 
     49 N          29.6841  -49.4925  -53.8228 N.am      5 UNK        -0.4607 
     50 C          29.9709  -50.3423  -54.8160 C.2       4 UNK         0.5031 
     51 O          29.3480  -50.3694  -55.8786 O.2       4 UNK        -0.5119 
     52 CA         31.1409  -51.3168  -54.5786 C.3       4 UNK         0.0263 
     53 CB         31.5629  -52.0499  -55.8649 C.3       4 UNK        -0.1967 
     54 N          32.3103  -50.6358  -54.0178 N.am      4 UNK        -0.4237 
     55 C          32.4972  -50.3128  -52.7334 C.2       3 UNK         0.4908 
     56 O          31.6874  -50.5798  -51.8455 O.2       3 UNK        -0.5102 
     57 CA         33.7682  -49.5213  -52.3837 C.3       3 UNK         0.0241 
     58 CB         35.0280  -50.4056  -52.4572 C.3       3 UNK        -0.1971 
     59 N          33.9283  -48.2784  -53.1516 N.am      3 UNK        -0.4139 
     60 C          34.1384  -48.1173  -54.4686 C.2       2 UNK         0.5016 
     61 O          34.2349  -49.0508  -55.2672 O.2       2 UNK        -0.5319 
     62 CA         34.2421  -46.6763  -55.0026 C.3       2 UNK         0.0286 
     63 CB         32.9355  -46.2790  -55.7053 C.3       2 UNK        -0.1963 
     64 N          34.5541  -45.6870  -53.9664 N.am      2 UNK        -0.4790 
     65 C          35.7463  -45.5757  -53.3627 C.2       1 UNK         0.5024 
     66 O          36.7331  -46.2380  -53.6893 O.2       1 UNK        -0.4888 
     67 H67        34.9239  -46.7160  -48.3021 H         1 UNK         0.0892 
     68 H68        36.6178  -46.6475  -48.7923 H         1 UNK         0.0892 
     69 H69        35.6151  -48.0180  -49.2738 H         1 UNK         0.0892 
     70 H70        36.9686  -45.2440  -50.4948 H         1 UNK         0.3107 
     71 H71        36.8046  -44.0603  -52.3201 H         1 UNK         0.0773 
     72 H72        33.7494  -44.0127  -52.0622 H         1 UNK         0.0680 
     73 H73        34.8021  -43.0536  -51.0720 H         1 UNK         0.0680 
     74 H74        32.9304  -41.3141  -52.1791 H         1 UNK         0.0650 
     75 H75        33.2162  -40.5307  -53.7122 H         1 UNK         0.0650 
     76 H76        31.4001  -43.2054  -52.0516 H         1 UNK         0.1397 
     77 H77        29.5434  -44.6695  -55.6153 H         1 UNK         0.1363 
     78 H78        32.6804  -41.7481  -55.8742 H         1 UNK         0.1355 
     79 H79        31.8634  -43.6857  -57.8544 H         1 UNK         0.0707 
     80 H80        31.1092  -42.1115  -57.7951 H         1 UNK         0.0707 
     81 H81        28.5604  -41.6515  -57.7756 H         1 UNK         0.1034 
     82 H82        28.1293  -42.7781  -56.5264 H         1 UNK         0.1034 
     83 H83        26.1271  -42.2331  -57.7418 H         1 UNK         0.0482 
     84 H84        26.3111  -42.9492  -61.6370 H         1 UNK         0.3460 
     85 H85        26.0971  -44.2216  -60.4610 H         1 UNK         0.3460 
     86 H86        26.7685  -44.9704  -58.6875 H         1 UNK         0.2989 
     87 H87        24.7661  -46.4667  -56.2184 H         1 UNK         0.0559 
     88 H88        24.1170  -46.2607  -59.2046 H         1 UNK         0.0848 
     89 H89        23.0211  -45.8954  -57.8818 H         1 UNK         0.0848 
     90 H90        23.5856  -47.5422  -58.1172 H         1 UNK         0.0848 
     91 H91        26.4518  -47.7203  -56.7380 H         1 UNK         0.3144 
     92 H92        28.2521  -48.5482  -59.6995 H         1 UNK         0.0727 
     93 H93        30.1364  -48.4757  -58.0476 H         1 UNK         0.0790 
     94 H94        29.1831  -47.4226  -57.0043 H         1 UNK         0.0790 
     95 H95        29.6830  -46.8704  -58.5941 H         1 UNK         0.0790 
     96 H96        28.2356  -49.8073  -57.1683 H         1 UNK         0.3215 
     97 H97        25.5996  -52.1392  -57.8872 H         1 UNK         0.0863 
     98 H98        27.5141  -53.6439  -57.3634 H         1 UNK         0.0808 
     99 H99        28.6523  -52.3327  -57.6678 H         1 UNK         0.0808 
    100 H100       27.6647  -52.9651  -58.9760 H         1 UNK         0.0808 
    101 H101       27.4532  -51.2821  -55.7225 H         1 UNK         0.3118 
    102 H102       24.8391  -50.1014  -53.6899 H         1 UNK         0.0546 
    103 H103       24.5705  -52.5426  -53.2312 H         1 UNK         0.0828 
    104 H104       25.5722  -51.7761  -52.0114 H         1 UNK         0.0828 
    105 H105       26.3140  -52.7591  -53.2752 H         1 UNK         0.0828 
    106 H106       27.5876  -50.6212  -53.1201 H         1 UNK         0.3005 
    107 H107       28.9520  -47.7709  -54.6969 H         1 UNK         0.1257 
    108 H108       28.7381  -48.2121  -51.6833 H         1 UNK         0.0775 
    109 H109       27.8286  -46.9519  -52.4637 H         1 UNK         0.0775 
    110 H110       28.5076  -45.0280  -53.4685 H         1 UNK         0.0840 
    111 H111       29.1824  -44.3901  -51.9920 H         1 UNK         0.0840 
    112 H112       30.2392  -49.5593  -52.9776 H         1 UNK         0.2987 
    113 H113       30.7936  -52.0664  -53.8648 H         1 UNK         0.0785 
    114 H114       31.8866  -51.3515  -56.6378 H         1 UNK         0.0798 
    115 H115       30.7366  -52.6322  -56.2741 H         1 UNK         0.0798 
    116 H116       32.3818  -52.7440  -55.6755 H         1 UNK         0.0798 
    117 H117       33.0021  -50.2863  -54.6790 H         1 UNK         0.3079 
    118 H118       33.6581  -49.2047  -51.3452 H         1 UNK         0.0794 
    119 H119       35.2167  -50.7726  -53.4663 H         1 UNK         0.0786 
    120 H120       34.9284  -51.2775  -51.8095 H         1 UNK         0.0786 
    121 H121       35.9122  -49.8582  -52.1303 H         1 UNK         0.0786 
    122 H122       33.8561  -47.4365  -52.5855 H         1 UNK         0.3032 
    123 H123       35.0460  -46.6640  -55.7421 H         1 UNK         0.1094 
    124 H124       33.0182  -45.2924  -56.1597 H         1 UNK         0.0794 
    125 H125       32.6868  -46.9812  -56.5023 H         1 UNK         0.0794 
    126 H126       32.0943  -46.2639  -55.0120 H         1 UNK         0.0794 
    127 H127       33.7929  -45.1041  -53.6465 H         1 UNK         0.3016 
@<TRIPOS>BOND
     1    1    2 1    
     2    1   67 1    
     3    1   68 1    
     4    1   69 1    
     5    2    3 2    
     6    2    4 am   BACKBONE|DICT|INTERRES
     7    4    5 1    
     8    4   70 1    
     9    5    6 1    
    10    5   65 1    
    11    5   71 1    
    12    6    7 1    
    13    6   72 1    
    14    6   73 1    
    15    7    8 1    
    16    8    9 1    
    17    8   74 1    
    18    8   75 1    
    19    9   10 ar   
    20    9   14 ar   
    21   10   11 ar   
    22   10   76 1    
    23   11   12 ar   
    24   11   48 1    
    25   12   13 ar   
    26   12   77 1    
    27   13   14 ar   
    28   13   15 1    
    29   14   78 1    
    30   15   16 1    
    31   15   79 1    
    32   15   80 1    
    33   16   17 1    
    34   17   18 1    
    35   17   81 1    
    36   17   82 1    
    37   18   19 1    
    38   18   22 1    
    39   18   83 1    
    40   19   20 am   BACKBONE|DICT|INTERRES
    41   19   21 2    
    42   20   84 1    
    43   20   85 1    
    44   22   23 am   BACKBONE|DICT|INTERRES
    45   22   86 1    
    46   23   24 2    
    47   23   25 1    
    48   25   26 1    
    49   25   27 1    
    50   25   87 1    
    51   26   88 1    
    52   26   89 1    
    53   26   90 1    
    54   27   28 am   BACKBONE|DICT|INTERRES
    55   27   91 1    
    56   28   29 2    
    57   28   30 1    
    58   30   31 1    
    59   30   32 1    
    60   30   92 1    
    61   31   93 1    
    62   31   94 1    
    63   31   95 1    
    64   32   33 am   BACKBONE|DICT|INTERRES
    65   32   96 1    
    66   33   34 2    
    67   33   35 1    
    68   35   36 1    
    69   35   37 1    
    70   35   97 1    
    71   36   98 1    
    72   36   99 1    
    73   36  100 1    
    74   37   38 am   BACKBONE|DICT|INTERRES
    75   37  101 1    
    76   38   39 2    
    77   38   40 1    
    78   40   41 1    
    79   40   42 1    
    80   40  102 1    
    81   41  103 1    
    82   41  104 1    
    83   41  105 1    
    84   42   43 am   BACKBONE|DICT|INTERRES
    85   42  106 1    
    86   43   44 2    
    87   43   45 1    
    88   45   46 1    
    89   45   49 1    
    90   45  107 1    
    91   46   47 1    
    92   46  108 1    
    93   46  109 1    
    94   47   48 1    
    95   48  110 1    
    96   48  111 1    
    97   49   50 am   BACKBONE|DICT|INTERRES
    98   49  112 1    
    99   50   51 2    
   100   50   52 1    
   101   52   53 1    
   102   52   54 1    
   103   52  113 1    
   104   53  114 1    
   105   53  115 1    
   106   53  116 1    
   107   54   55 am   BACKBONE|DICT|INTERRES
   108   54  117 1    
   109   55   56 2    
   110   55   57 1    
   111   57   58 1    
   112   57   59 1    
   113   57  118 1    
   114   58  119 1    
   115   58  120 1    
   116   58  121 1    
   117   59   60 am   BACKBONE|DICT|INTERRES
   118   59  122 1    
   119   60   61 2    
   120   60   62 1    
   121   62   63 1    
   122   62   64 1    
   123   62  123 1    
   124   63  124 1    
   125   63  125 1    
   126   63  126 1    
   127   64   65 am   BACKBONE|DICT|INTERRES
   128   64  127 1    
   129   65   66 2    
@<TRIPOS>SUBSTRUCTURE
     1 UNK         1 GROUP             0       ****    0 ROOT    
