@<TRIPOS>MOLECULE
3R134
127   129    1
SMALL
USER_CHARGES


@<TRIPOS>ATOM
      1 CA         34.3458  -46.7621  -51.4522 C.3       0 UNK        -0.1968 
      2 C          34.8329  -47.2356  -52.8133 C.2       0 UNK         0.4852 
      3 O          35.7872  -48.0112  -52.8852 O.2       0 UNK        -0.5359 
      4 N          34.1814  -46.7784  -53.8910 N.am      1 UNK        -0.4300 
      5 CA         34.5730  -47.0086  -55.2887 C.3       1 UNK         0.0863 
      6 C6         33.7352  -46.1477  -56.2635 C.3       11 UNK        -0.0953 
      7 S7         34.0681  -44.3720  -56.0358 S.3       11 UNK        -0.2369 
      8 C8         32.5205  -43.6285  -56.6447 C.3       11 UNK         0.0226 
      9 C9         31.3590  -43.7484  -55.6633 C.ar      11 UNK        -0.0699 
     10 C10        31.5080  -43.3447  -54.3305 C.ar      11 UNK        -0.0804 
     11 C11        30.4248  -43.3865  -53.4481 C.ar      11 UNK        -0.0871 
     12 C12        29.1816  -43.8217  -53.9143 C.ar      11 UNK        -0.1008 
     13 C13        29.0198  -44.2423  -55.2356 C.ar      11 UNK        -0.0735 
     14 C14        30.1129  -44.2067  -56.1069 C.ar      11 UNK        -0.0945 
     15 C15        27.6580  -44.7334  -55.7038 C.3       11 UNK         0.0169 
     16 S16        26.4358  -43.3827  -55.7633 S.3       11 UNK        -0.2669 
     17 C17        26.8424  -42.5817  -57.3537 C.3       11 UNK        -0.0850 
     18 CA         25.6435  -42.5438  -58.3413 C.3       10 UNK         0.0855 
     19 C          26.0552  -41.8180  -59.6565 C.2       10 UNK         0.5543 
     20 N          26.1223  -42.4922  -60.7980 N.am      10 UNK        -0.7343 
     21 O          26.3205  -40.6187  -59.6359 O.2       10 UNK        -0.5027 
     22 N          25.0373  -43.8754  -58.5131 N.am      10 UNK        -0.4495 
     23 C          23.8736  -44.1542  -59.1123 C.2       10 UNK         0.4903 
     24 O          23.1434  -43.2974  -59.6124 O.2       10 UNK        -0.4860 
     25 CA         23.4684  -45.6459  -59.1683 C.3       9 UNK         0.0227 
     26 CB         22.2546  -45.8948  -60.0839 C.3       9 UNK        -0.1964 
     27 N          24.5736  -46.5148  -59.5950 N.am      9 UNK        -0.4231 
     28 C          25.5986  -46.8930  -58.8215 C.2       9 UNK         0.5014 
     29 O          25.6975  -46.5900  -57.6284 O.2       9 UNK        -0.5270 
     30 CA         26.7328  -47.6701  -59.4996 C.3       8 UNK         0.0284 
     31 CB         27.4156  -46.8151  -60.5892 C.3       8 UNK        -0.1977 
     32 N          27.6950  -48.0210  -58.4613 N.am      8 UNK        -0.4342 
     33 C          28.7016  -48.8933  -58.5524 C.2       8 UNK         0.5039 
     34 O          28.9415  -49.5620  -59.5586 O.2       8 UNK        -0.5547 
     35 CA         29.6122  -49.0339  -57.3198 C.3       7 UNK         0.0281 
     36 CB         30.8888  -48.2000  -57.5093 C.3       7 UNK        -0.1963 
     37 N          28.9796  -48.6464  -56.0537 N.am      7 UNK        -0.4444 
     38 C          28.0435  -49.3670  -55.4193 C.2       7 UNK         0.5104 
     39 O          27.5868  -50.4225  -55.8597 O.2       7 UNK        -0.5100 
     40 CA         27.5593  -48.8278  -54.0614 C.3       6 UNK         0.0396 
     41 CB         26.9625  -49.9277  -53.1601 C.3       6 UNK        -0.1801 
     42 N          28.6417  -48.1380  -53.3560 N.am      6 UNK        -0.4747 
     43 C          28.4863  -47.1498  -52.4661 C.2       6 UNK         0.5012 
     44 O          27.3881  -46.7049  -52.1293 O.2       6 UNK        -0.5003 
     45 CA         29.7836  -46.5929  -51.8395 C.3       5 UNK         0.0782 
     46 C46        29.5595  -45.3456  -50.9424 C.3       11 UNK        -0.0868 
     47 S47        31.0585  -44.3073  -50.8947 S.3       11 UNK        -0.2515 
     48 C48        30.5879  -42.9349  -52.0016 C.3       11 UNK         0.0199 
     49 N          30.4781  -47.6476  -51.0957 N.am      5 UNK        -0.4607 
     50 C          31.2729  -48.5763  -51.6302 C.2       4 UNK         0.5031 
     51 O          31.5469  -48.6370  -52.8360 O.2       4 UNK        -0.5119 
     52 CA         31.8424  -49.6169  -50.6597 C.3       4 UNK         0.0263 
     53 CB         30.8088  -50.7165  -50.3579 C.3       4 UNK        -0.1967 
     54 N          33.0059  -50.1887  -51.3107 N.am      4 UNK        -0.4237 
     55 C          34.0406  -50.8365  -50.7696 C.2       3 UNK         0.4908 
     56 O          34.1348  -51.0940  -49.5690 O.2       3 UNK        -0.5102 
     57 CA         35.1850  -51.2233  -51.7324 C.3       3 UNK         0.0241 
     58 CB         35.6437  -52.6849  -51.5445 C.3       3 UNK        -0.1971 
     59 N          34.8921  -50.9101  -53.1432 N.am      3 UNK        -0.4139 
     60 C          33.9856  -51.4936  -53.9465 C.2       2 UNK         0.5016 
     61 O          33.3477  -52.5018  -53.6420 O.2       2 UNK        -0.5319 
     62 CA         33.6889  -50.7762  -55.2750 C.3       2 UNK         0.0286 
     63 CB         32.3300  -51.1785  -55.8780 C.3       2 UNK        -0.1963 
     64 N          33.7202  -49.3198  -55.0890 N.am      2 UNK        -0.4790 
     65 C          34.5690  -48.4928  -55.7148 C.2       1 UNK         0.5024 
     66 O          35.3588  -48.8622  -56.5847 O.2       1 UNK        -0.4888 
     67 H67        34.2594  -47.6023  -50.7648 H         1 UNK         0.0892 
     68 H68        35.0560  -46.0521  -51.0296 H         1 UNK         0.0892 
     69 H69        33.3743  -46.2729  -51.5162 H         1 UNK         0.0892 
     70 H70        33.4026  -46.1481  -53.7649 H         1 UNK         0.3107 
     71 H71        35.6133  -46.6859  -55.3732 H         1 UNK         0.0773 
     72 H72        32.6707  -46.3342  -56.1185 H         1 UNK         0.0680 
     73 H73        33.9591  -46.3938  -57.3035 H         1 UNK         0.0680 
     74 H74        32.2695  -44.0759  -57.6078 H         1 UNK         0.0650 
     75 H75        32.6988  -42.5697  -56.8356 H         1 UNK         0.0650 
     76 H76        32.4668  -42.9838  -53.9836 H         1 UNK         0.1397 
     77 H77        28.3257  -43.8312  -53.2543 H         1 UNK         0.1363 
     78 H78        29.9883  -44.5145  -57.1360 H         1 UNK         0.1355 
     79 H79        27.7319  -45.2125  -56.6803 H         1 UNK         0.0707 
     80 H80        27.2982  -45.4989  -55.0146 H         1 UNK         0.0707 
     81 H81        27.1834  -41.5682  -57.1332 H         1 UNK         0.1034 
     82 H82        27.6942  -43.0869  -57.8126 H         1 UNK         0.1034 
     83 H83        24.8718  -41.9179  -57.8893 H         1 UNK         0.0482 
     84 H84        25.8912  -43.4714  -60.8246 H         1 UNK         0.3460 
     85 H85        26.3877  -42.0104  -61.6424 H         1 UNK         0.3460 
     86 H86        25.5311  -44.6487  -58.0811 H         1 UNK         0.2989 
     87 H87        23.1770  -45.9297  -58.1548 H         1 UNK         0.0559 
     88 H88        21.3894  -45.3182  -59.7535 H         1 UNK         0.0848 
     89 H89        21.9598  -46.9443  -60.0771 H         1 UNK         0.0848 
     90 H90        22.4613  -45.6096  -61.1161 H         1 UNK         0.0848 
     91 H91        24.5817  -46.7813  -60.5695 H         1 UNK         0.3144 
     92 H92        26.3223  -48.5835  -59.9345 H         1 UNK         0.0727 
     93 H93        27.8116  -45.8845  -60.1800 H         1 UNK         0.0790 
     94 H94        26.7202  -46.5526  -61.3869 H         1 UNK         0.0790 
     95 H95        28.2425  -47.3487  -61.0577 H         1 UNK         0.0790 
     96 H96        27.5091  -47.5603  -57.5783 H         1 UNK         0.3215 
     97 H97        29.8933  -50.0866  -57.2495 H         1 UNK         0.0863 
     98 H98        31.5728  -48.3399  -56.6744 H         1 UNK         0.0808 
     99 H99        30.6698  -47.1348  -57.5937 H         1 UNK         0.0808 
    100 H100       31.4201  -48.4971  -58.4146 H         1 UNK         0.0808 
    101 H101       29.2912  -47.7845  -55.6310 H         1 UNK         0.3118 
    102 H102       26.7716  -48.1065  -54.2896 H         1 UNK         0.0546 
    103 H103       27.7038  -50.6890  -52.9146 H         1 UNK         0.0828 
    104 H104       26.1263  -50.4287  -53.6494 H         1 UNK         0.0828 
    105 H105       26.5835  -49.5155  -52.2249 H         1 UNK         0.0828 
    106 H106       29.5832  -48.4801  -53.5262 H         1 UNK         0.3005 
    107 H107       30.4037  -46.2906  -52.6876 H         1 UNK         0.1257 
    108 H108       29.2997  -45.6394  -49.9241 H         1 UNK         0.0775 
    109 H109       28.7250  -44.7307  -51.2772 H         1 UNK         0.0775 
    110 H110       29.6667  -42.4739  -51.6416 H         1 UNK         0.0840 
    111 H111       31.3531  -42.1595  -51.9411 H         1 UNK         0.0840 
    112 H112       30.2864  -47.6837  -50.1050 H         1 UNK         0.2987 
    113 H113       32.1514  -49.1210  -49.7372 H         1 UNK         0.0785 
    114 H114       29.9202  -50.3025  -49.8799 H         1 UNK         0.0798 
    115 H115       31.2164  -51.4698  -49.6835 H         1 UNK         0.0798 
    116 H116       30.4852  -51.2241  -51.2678 H         1 UNK         0.0798 
    117 H117       33.0211  -50.0092  -52.3055 H         1 UNK         0.3079 
    118 H118       36.0251  -50.5818  -51.4618 H         1 UNK         0.0794 
    119 H119       36.0253  -52.8449  -50.5354 H         1 UNK         0.0786 
    120 H120       36.4447  -52.9424  -52.2374 H         1 UNK         0.0786 
    121 H121       34.8281  -53.3926  -51.6935 H         1 UNK         0.0786 
    122 H122       35.3318  -50.0580  -53.4767 H         1 UNK         0.3032 
    123 H123       34.4695  -51.0999  -55.9673 H         1 UNK         0.1094 
    124 H124       32.2009  -50.7405  -56.8667 H         1 UNK         0.0794 
    125 H125       32.2528  -52.2595  -56.0012 H         1 UNK         0.0794 
    126 H126       31.4979  -50.8574  -55.2498 H         1 UNK         0.0794 
    127 H127       33.0889  -48.9342  -54.3951 H         1 UNK         0.3016 
@<TRIPOS>BOND
     1    1    2 1    
     2    1   67 1    
     3    1   68 1    
     4    1   69 1    
     5    2    3 2    
     6    2    4 am   BACKBONE|DICT|INTERRES
     7    4    5 1    
     8    4   70 1    
     9    5    6 1    
    10    5   65 1    
    11    5   71 1    
    12    6    7 1    
    13    6   72 1    
    14    6   73 1    
    15    7    8 1    
    16    8    9 1    
    17    8   74 1    
    18    8   75 1    
    19    9   10 ar   
    20    9   14 ar   
    21   10   11 ar   
    22   10   76 1    
    23   11   12 ar   
    24   11   48 1    
    25   12   13 ar   
    26   12   77 1    
    27   13   14 ar   
    28   13   15 1    
    29   14   78 1    
    30   15   16 1    
    31   15   79 1    
    32   15   80 1    
    33   16   17 1    
    34   17   18 1    
    35   17   81 1    
    36   17   82 1    
    37   18   19 1    
    38   18   22 1    
    39   18   83 1    
    40   19   20 am   BACKBONE|DICT|INTERRES
    41   19   21 2    
    42   20   84 1    
    43   20   85 1    
    44   22   23 am   BACKBONE|DICT|INTERRES
    45   22   86 1    
    46   23   24 2    
    47   23   25 1    
    48   25   26 1    
    49   25   27 1    
    50   25   87 1    
    51   26   88 1    
    52   26   89 1    
    53   26   90 1    
    54   27   28 am   BACKBONE|DICT|INTERRES
    55   27   91 1    
    56   28   29 2    
    57   28   30 1    
    58   30   31 1    
    59   30   32 1    
    60   30   92 1    
    61   31   93 1    
    62   31   94 1    
    63   31   95 1    
    64   32   33 am   BACKBONE|DICT|INTERRES
    65   32   96 1    
    66   33   34 2    
    67   33   35 1    
    68   35   36 1    
    69   35   37 1    
    70   35   97 1    
    71   36   98 1    
    72   36   99 1    
    73   36  100 1    
    74   37   38 am   BACKBONE|DICT|INTERRES
    75   37  101 1    
    76   38   39 2    
    77   38   40 1    
    78   40   41 1    
    79   40   42 1    
    80   40  102 1    
    81   41  103 1    
    82   41  104 1    
    83   41  105 1    
    84   42   43 am   BACKBONE|DICT|INTERRES
    85   42  106 1    
    86   43   44 2    
    87   43   45 1    
    88   45   46 1    
    89   45   49 1    
    90   45  107 1    
    91   46   47 1    
    92   46  108 1    
    93   46  109 1    
    94   47   48 1    
    95   48  110 1    
    96   48  111 1    
    97   49   50 am   BACKBONE|DICT|INTERRES
    98   49  112 1    
    99   50   51 2    
   100   50   52 1    
   101   52   53 1    
   102   52   54 1    
   103   52  113 1    
   104   53  114 1    
   105   53  115 1    
   106   53  116 1    
   107   54   55 am   BACKBONE|DICT|INTERRES
   108   54  117 1    
   109   55   56 2    
   110   55   57 1    
   111   57   58 1    
   112   57   59 1    
   113   57  118 1    
   114   58  119 1    
   115   58  120 1    
   116   58  121 1    
   117   59   60 am   BACKBONE|DICT|INTERRES
   118   59  122 1    
   119   60   61 2    
   120   60   62 1    
   121   62   63 1    
   122   62   64 1    
   123   62  123 1    
   124   63  124 1    
   125   63  125 1    
   126   63  126 1    
   127   64   65 am   BACKBONE|DICT|INTERRES
   128   64  127 1    
   129   65   66 2    
@<TRIPOS>SUBSTRUCTURE
     1 UNK         1 GROUP             0       ****    0 ROOT    
