@<TRIPOS>MOLECULE
3R134
127   129    1
SMALL
USER_CHARGES


@<TRIPOS>ATOM
      1 CA         31.5975  -45.5540  -50.2241 C.3       0 UNK        -0.1968 
      2 C          32.8102  -46.2677  -50.8039 C.2       0 UNK         0.4852 
      3 O          33.2683  -47.2550  -50.2275 O.2       0 UNK        -0.5359 
      4 N          33.3268  -45.7762  -51.9389 N.am      1 UNK        -0.4300 
      5 CA         34.4606  -46.3423  -52.6805 C.3       1 UNK         0.0863 
      6 C6         34.9430  -45.4042  -53.8180 C.3       11 UNK        -0.0953 
      7 S7         33.6109  -44.8782  -54.9511 S.3       11 UNK        -0.2369 
      8 C8         33.3850  -43.1480  -54.4401 C.3       11 UNK         0.0226 
      9 C9         31.9662  -42.6972  -54.7303 C.ar      11 UNK        -0.0699 
     10 C10        30.9739  -42.8451  -53.7585 C.ar      11 UNK        -0.0804 
     11 C11        29.6508  -42.4906  -54.0340 C.ar      11 UNK        -0.0871 
     12 C12        29.3398  -41.9211  -55.2734 C.ar      11 UNK        -0.1008 
     13 C13        30.3245  -41.7708  -56.2555 C.ar      11 UNK        -0.0735 
     14 C14        31.6367  -42.1633  -55.9779 C.ar      11 UNK        -0.0945 
     15 C15        29.9794  -41.1964  -57.6219 C.3       11 UNK         0.0169 
     16 S16        29.2899  -42.4666  -58.7341 S.3       11 UNK        -0.2669 
     17 C17        27.5181  -42.4256  -58.2931 C.3       11 UNK        -0.0850 
     18 CA         27.0706  -43.6305  -57.4145 C.3       10 UNK         0.0855 
     19 C          25.6591  -43.4086  -56.7902 C.2       10 UNK         0.5543 
     20 N          24.7574  -44.3832  -56.7788 N.am      10 UNK        -0.7343 
     21 O          25.3865  -42.3329  -56.2637 O.2       10 UNK        -0.5027 
     22 N          27.2726  -44.9461  -58.0421 N.am      10 UNK        -0.4495 
     23 C          26.7205  -45.3817  -59.1823 C.2       10 UNK         0.4903 
     24 O          26.0546  -44.6860  -59.9490 O.2       10 UNK        -0.4860 
     25 CA         26.8887  -46.8800  -59.4842 C.3       9 UNK         0.0227 
     26 CB         28.2086  -47.1337  -60.2265 C.3       9 UNK        -0.1964 
     27 N          26.8194  -47.7088  -58.2734 N.am      9 UNK        -0.4231 
     28 C          25.7362  -47.8059  -57.4844 C.2       9 UNK         0.5014 
     29 O          24.6720  -47.2380  -57.7374 O.2       9 UNK        -0.5270 
     30 CA         25.8509  -48.6081  -56.1722 C.3       8 UNK         0.0284 
     31 CB         24.5435  -49.3459  -55.8131 C.3       8 UNK        -0.1977 
     32 N          26.9997  -49.5144  -56.1024 N.am      8 UNK        -0.4342 
     33 C          27.2554  -50.5779  -56.8780 C.2       8 UNK         0.5039 
     34 O          26.5142  -50.9687  -57.7820 O.2       8 UNK        -0.5547 
     35 CA         28.5858  -51.3013  -56.6001 C.3       7 UNK         0.0281 
     36 CB         28.9324  -52.3700  -57.6589 C.3       7 UNK        -0.1963 
     37 N          29.6995  -50.3626  -56.4175 N.am      7 UNK        -0.4444 
     38 C          30.1632  -49.4697  -57.3044 C.2       7 UNK         0.5104 
     39 O          29.7093  -49.3327  -58.4403 O.2       7 UNK        -0.5100 
     40 CA         31.3015  -48.5554  -56.8121 C.3       6 UNK         0.0396 
     41 CB         31.8257  -47.5964  -57.9010 C.3       6 UNK        -0.1801 
     42 N          30.9332  -47.8042  -55.6093 N.am      6 UNK        -0.4747 
     43 C          29.8932  -46.9666  -55.4567 C.2       6 UNK         0.5012 
     44 O          29.0732  -46.7025  -56.3411 O.2       6 UNK        -0.5003 
     45 CA         29.7451  -46.3546  -54.0478 C.3       5 UNK         0.0782 
     46 C46        28.4803  -45.4619  -53.8938 C.3       11 UNK        -0.0868 
     47 S47        28.5384  -44.4606  -52.3673 S.3       11 UNK        -0.2515 
     48 C48        28.5500  -42.7455  -53.0084 C.3       11 UNK         0.0199 
     49 N          29.8532  -47.3941  -53.0113 N.am      5 UNK        -0.4607 
     50 C          29.0165  -48.4280  -52.8412 C.2       4 UNK         0.5031 
     51 O          28.0463  -48.6541  -53.5660 O.2       4 UNK        -0.5119 
     52 CA         29.3570  -49.3895  -51.6855 C.3       4 UNK         0.0263 
     53 CB         28.3097  -50.5116  -51.5146 C.3       4 UNK        -0.1967 
     54 N          30.7063  -49.9567  -51.8104 N.am      4 UNK        -0.4237 
     55 C          31.1801  -50.6628  -52.8471 C.2       3 UNK         0.4908 
     56 O          30.5219  -50.9662  -53.8442 O.2       3 UNK        -0.5102 
     57 CA         32.6428  -51.1044  -52.7665 C.3       3 UNK         0.0241 
     58 CB         32.7629  -52.5118  -52.1610 C.3       3 UNK        -0.1971 
     59 N          33.1705  -51.1120  -54.1317 N.am      3 UNK        -0.4139 
     60 C          34.2983  -50.5525  -54.5876 C.2       2 UNK         0.5016 
     61 O          34.5323  -50.4699  -55.7934 O.2       2 UNK        -0.5319 
     62 CA         35.3403  -50.0063  -53.5853 C.3       2 UNK         0.0286 
     63 CB         36.7717  -50.2857  -54.0818 C.3       2 UNK        -0.1963 
     64 N          35.2403  -48.5711  -53.2761 N.am      2 UNK        -0.4790 
     65 C          34.1674  -47.7647  -53.2031 C.2       1 UNK         0.5024 
     66 O          33.0111  -48.0690  -53.5108 O.2       1 UNK        -0.4888 
     67 H67        30.7383  -46.2234  -50.2005 H         1 UNK         0.0892 
     68 H68        31.8052  -45.2342  -49.2036 H         1 UNK         0.0892 
     69 H69        31.3240  -44.6728  -50.8023 H         1 UNK         0.0892 
     70 H70        32.8950  -44.9796  -52.3797 H         1 UNK         0.3107 
     71 H71        35.2786  -46.4290  -51.9618 H         1 UNK         0.0773 
     72 H72        35.4173  -44.5225  -53.3848 H         1 UNK         0.0680 
     73 H73        35.7255  -45.8824  -54.4104 H         1 UNK         0.0680 
     74 H74        33.5945  -43.0336  -53.3756 H         1 UNK         0.0650 
     75 H75        34.1040  -42.5180  -54.9660 H         1 UNK         0.0650 
     76 H76        31.2214  -43.2684  -52.7961 H         1 UNK         0.1397 
     77 H77        28.3232  -41.6211  -55.4871 H         1 UNK         0.1363 
     78 H78        32.4014  -42.0635  -56.7363 H         1 UNK         0.1355 
     79 H79        30.8768  -40.7859  -58.0873 H         1 UNK         0.0707 
     80 H80        29.2902  -40.3571  -57.5192 H         1 UNK         0.0707 
     81 H81        26.9357  -42.3840  -59.2139 H         1 UNK         0.1034 
     82 H82        27.3088  -41.4821  -57.7871 H         1 UNK         0.1034 
     83 H83        27.7330  -43.6563  -56.5543 H         1 UNK         0.0482 
     84 H84        24.9354  -45.2788  -57.2171 H         1 UNK         0.3460 
     85 H85        23.8607  -44.2093  -56.3540 H         1 UNK         0.3460 
     86 H86        27.8168  -45.6064  -57.4943 H         1 UNK         0.2989 
     87 H87        26.0684  -47.1825  -60.1383 H         1 UNK         0.0559 
     88 H88        28.3066  -48.1801  -60.5161 H         1 UNK         0.0848 
     89 H89        29.0711  -46.8731  -59.6124 H         1 UNK         0.0848 
     90 H90        28.2654  -46.5381  -61.1385 H         1 UNK         0.0848 
     91 H91        27.6701  -48.1823  -57.9933 H         1 UNK         0.3144 
     92 H92        26.0263  -47.8631  -55.3946 H         1 UNK         0.0727 
     93 H93        24.6370  -49.8788  -54.8668 H         1 UNK         0.0790 
     94 H94        24.2623  -50.0680  -56.5801 H         1 UNK         0.0790 
     95 H95        23.7136  -48.6462  -55.7067 H         1 UNK         0.0790 
     96 H96        27.6561  -49.2898  -55.3569 H         1 UNK         0.3215 
     97 H97        28.4593  -51.8131  -55.6446 H         1 UNK         0.0863 
     98 H98        29.8679  -52.8756  -57.4202 H         1 UNK         0.0808 
     99 H99        29.0277  -51.9384  -58.6557 H         1 UNK         0.0808 
    100 H100       28.1555  -53.1338  -57.7097 H         1 UNK         0.0808 
    101 H101       30.1125  -50.3880  -55.4851 H         1 UNK         0.3118 
    102 H102       32.1249  -49.2111  -56.5273 H         1 UNK         0.0546 
    103 H103       31.0604  -46.8914  -58.2254 H         1 UNK         0.0828 
    104 H104       32.1558  -48.1482  -58.7818 H         1 UNK         0.0828 
    105 H105       32.6778  -47.0202  -57.5402 H         1 UNK         0.0828 
    106 H106       31.5458  -47.9490  -54.8100 H         1 UNK         0.3005 
    107 H107       30.6176  -45.7097  -53.9350 H         1 UNK         0.1257 
    108 H108       28.3817  -44.7893  -54.7436 H         1 UNK         0.0775 
    109 H109       27.5701  -46.0629  -53.8884 H         1 UNK         0.0775 
    110 H110       27.5689  -42.5326  -53.4364 H         1 UNK         0.0840 
    111 H111       28.6772  -42.0561  -52.1729 H         1 UNK         0.0840 
    112 H112       30.6723  -47.3446  -52.4244 H         1 UNK         0.2987 
    113 H113       29.3494  -48.7911  -50.7730 H         1 UNK         0.0785 
    114 H114       28.5487  -51.1512  -50.6652 H         1 UNK         0.0798 
    115 H115       28.2403  -51.1435  -52.4008 H         1 UNK         0.0798 
    116 H116       27.3178  -50.0941  -51.3373 H         1 UNK         0.0798 
    117 H117       31.3372  -49.7500  -51.0478 H         1 UNK         0.3079 
    118 H118       33.1627  -50.3894  -52.1294 H         1 UNK         0.0794 
    119 H119       32.3610  -52.5380  -51.1473 H         1 UNK         0.0786 
    120 H120       33.8033  -52.8326  -52.1061 H         1 UNK         0.0786 
    121 H121       32.2163  -53.2510  -52.7483 H         1 UNK         0.0786 
    122 H122       32.4944  -51.4342  -54.8103 H         1 UNK         0.3032 
    123 H123       35.2476  -50.5555  -52.6485 H         1 UNK         0.1094 
    124 H124       36.8992  -51.3387  -54.3378 H         1 UNK         0.0794 
    125 H125       37.0118  -49.7030  -54.9723 H         1 UNK         0.0794 
    126 H126       37.5133  -50.0508  -53.3180 H         1 UNK         0.0794 
    127 H127       36.1218  -48.1531  -53.0150 H         1 UNK         0.3016 
@<TRIPOS>BOND
     1    1    2 1    
     2    1   67 1    
     3    1   68 1    
     4    1   69 1    
     5    2    3 2    
     6    2    4 am   BACKBONE|DICT|INTERRES
     7    4    5 1    
     8    4   70 1    
     9    5    6 1    
    10    5   65 1    
    11    5   71 1    
    12    6    7 1    
    13    6   72 1    
    14    6   73 1    
    15    7    8 1    
    16    8    9 1    
    17    8   74 1    
    18    8   75 1    
    19    9   10 ar   
    20    9   14 ar   
    21   10   11 ar   
    22   10   76 1    
    23   11   12 ar   
    24   11   48 1    
    25   12   13 ar   
    26   12   77 1    
    27   13   14 ar   
    28   13   15 1    
    29   14   78 1    
    30   15   16 1    
    31   15   79 1    
    32   15   80 1    
    33   16   17 1    
    34   17   18 1    
    35   17   81 1    
    36   17   82 1    
    37   18   19 1    
    38   18   22 1    
    39   18   83 1    
    40   19   20 am   BACKBONE|DICT|INTERRES
    41   19   21 2    
    42   20   84 1    
    43   20   85 1    
    44   22   23 am   BACKBONE|DICT|INTERRES
    45   22   86 1    
    46   23   24 2    
    47   23   25 1    
    48   25   26 1    
    49   25   27 1    
    50   25   87 1    
    51   26   88 1    
    52   26   89 1    
    53   26   90 1    
    54   27   28 am   BACKBONE|DICT|INTERRES
    55   27   91 1    
    56   28   29 2    
    57   28   30 1    
    58   30   31 1    
    59   30   32 1    
    60   30   92 1    
    61   31   93 1    
    62   31   94 1    
    63   31   95 1    
    64   32   33 am   BACKBONE|DICT|INTERRES
    65   32   96 1    
    66   33   34 2    
    67   33   35 1    
    68   35   36 1    
    69   35   37 1    
    70   35   97 1    
    71   36   98 1    
    72   36   99 1    
    73   36  100 1    
    74   37   38 am   BACKBONE|DICT|INTERRES
    75   37  101 1    
    76   38   39 2    
    77   38   40 1    
    78   40   41 1    
    79   40   42 1    
    80   40  102 1    
    81   41  103 1    
    82   41  104 1    
    83   41  105 1    
    84   42   43 am   BACKBONE|DICT|INTERRES
    85   42  106 1    
    86   43   44 2    
    87   43   45 1    
    88   45   46 1    
    89   45   49 1    
    90   45  107 1    
    91   46   47 1    
    92   46  108 1    
    93   46  109 1    
    94   47   48 1    
    95   48  110 1    
    96   48  111 1    
    97   49   50 am   BACKBONE|DICT|INTERRES
    98   49  112 1    
    99   50   51 2    
   100   50   52 1    
   101   52   53 1    
   102   52   54 1    
   103   52  113 1    
   104   53  114 1    
   105   53  115 1    
   106   53  116 1    
   107   54   55 am   BACKBONE|DICT|INTERRES
   108   54  117 1    
   109   55   56 2    
   110   55   57 1    
   111   57   58 1    
   112   57   59 1    
   113   57  118 1    
   114   58  119 1    
   115   58  120 1    
   116   58  121 1    
   117   59   60 am   BACKBONE|DICT|INTERRES
   118   59  122 1    
   119   60   61 2    
   120   60   62 1    
   121   62   63 1    
   122   62   64 1    
   123   62  123 1    
   124   63  124 1    
   125   63  125 1    
   126   63  126 1    
   127   64   65 am   BACKBONE|DICT|INTERRES
   128   64  127 1    
   129   65   66 2    
@<TRIPOS>SUBSTRUCTURE
     1 UNK         1 GROUP             0       ****    0 ROOT    
