@<TRIPOS>MOLECULE
3R134
127   129    1
SMALL
USER_CHARGES


@<TRIPOS>ATOM
      1 CA         37.6428  -44.8614  -52.7584 C.3       0 UNK        -0.1968 
      2 C          37.3868  -46.3059  -53.1628 C.2       0 UNK         0.4852 
      3 O          38.2333  -47.1684  -52.9214 O.2       0 UNK        -0.5359 
      4 N          36.2309  -46.5721  -53.7830 N.am      1 UNK        -0.4300 
      5 CA         35.7705  -47.9081  -54.1692 C.3       1 UNK         0.0863 
      6 C6         34.6955  -47.8462  -55.2865 C.3       11 UNK        -0.0953 
      7 S7         33.2829  -46.7375  -54.9401 S.3       11 UNK        -0.2369 
      8 C8         33.5815  -45.3917  -56.1285 C.3       11 UNK         0.0226 
      9 C9         32.3681  -44.4819  -56.2237 C.ar      11 UNK        -0.0699 
     10 C10        32.1703  -43.4648  -55.2861 C.ar      11 UNK        -0.0804 
     11 C11        31.0150  -42.6760  -55.3294 C.ar      11 UNK        -0.0871 
     12 C12        30.0826  -42.8717  -56.3541 C.ar      11 UNK        -0.1008 
     13 C13        30.2726  -43.8886  -57.2942 C.ar      11 UNK        -0.0735 
     14 C14        31.4178  -44.6865  -57.2272 C.ar      11 UNK        -0.0945 
     15 C15        29.2185  -44.1687  -58.3506 C.3       11 UNK         0.0169 
     16 S16        27.9508  -45.2989  -57.6983 S.3       11 UNK        -0.2669 
     17 C17        26.5440  -44.1570  -57.4554 C.3       11 UNK        -0.0850 
     18 CA         25.2527  -44.8634  -56.9575 C.3       10 UNK         0.0855 
     19 C          24.0797  -43.8537  -56.7983 C.2       10 UNK         0.5543 
     20 N          22.9406  -44.0482  -57.4514 N.am      10 UNK        -0.7343 
     21 O          24.2051  -42.8751  -56.0665 O.2       10 UNK        -0.5027 
     22 N          24.9431  -46.0512  -57.7656 N.am      10 UNK        -0.4495 
     23 C          24.2651  -47.1270  -57.3556 C.2       10 UNK         0.4903 
     24 O          23.6908  -47.2039  -56.2699 O.2       10 UNK        -0.4860 
     25 CA         24.2695  -48.3509  -58.2907 C.3       9 UNK         0.0227 
     26 CB         23.0920  -48.3077  -59.2843 C.3       9 UNK        -0.1964 
     27 N          25.5616  -48.5768  -58.9615 N.am      9 UNK        -0.4231 
     28 C          26.1488  -47.8545  -59.9292 C.2       9 UNK         0.5014 
     29 O          25.6295  -46.8707  -60.4588 O.2       9 UNK        -0.5270 
     30 CA         27.5871  -48.2520  -60.2931 C.3       8 UNK         0.0284 
     31 CB         28.2766  -47.2358  -61.2237 C.3       8 UNK        -0.1977 
     32 N          28.3653  -48.3820  -59.0618 N.am      8 UNK        -0.4342 
     33 C          29.0716  -49.4581  -58.7015 C.2       8 UNK         0.5039 
     34 O          29.2177  -50.4534  -59.4124 O.2       8 UNK        -0.5547 
     35 CA         29.7118  -49.4379  -57.3022 C.3       7 UNK         0.0281 
     36 CB         31.1626  -48.9348  -57.3832 C.3       7 UNK        -0.1963 
     37 N          28.9930  -48.6500  -56.2939 N.am      7 UNK        -0.4444 
     38 C          27.7292  -48.8447  -55.8840 C.2       7 UNK         0.5104 
     39 O          26.9664  -49.6595  -56.4047 O.2       7 UNK        -0.5100 
     40 CA         27.2237  -48.0053  -54.6942 C.3       6 UNK         0.0396 
     41 CB         26.7772  -48.9070  -53.5311 C.3       6 UNK        -0.1801 
     42 N          28.2383  -47.0686  -54.2070 N.am      6 UNK        -0.4747 
     43 C          28.0295  -45.7838  -53.8895 C.2       6 UNK         0.5012 
     44 O          26.9171  -45.2567  -53.8625 O.2       6 UNK        -0.5003 
     45 CA         29.2868  -44.9467  -53.5733 C.3       5 UNK         0.0782 
     46 C46        28.9764  -43.5595  -52.9386 C.3       11 UNK        -0.0868 
     47 S47        30.4638  -42.5411  -52.6176 S.3       11 UNK        -0.2515 
     48 C48        30.7275  -41.6859  -54.2107 C.3       11 UNK         0.0199 
     49 N          30.3287  -45.7110  -52.8844 N.am      5 UNK        -0.4607 
     50 C          30.2459  -46.2958  -51.6858 C.2       4 UNK         0.5031 
     51 O          29.2618  -46.2463  -50.9457 O.2       4 UNK        -0.5119 
     52 CA         31.4849  -47.1068  -51.2722 C.3       4 UNK         0.0263 
     53 CB         31.8037  -46.9290  -49.7777 C.3       4 UNK        -0.1967 
     54 N          31.3812  -48.5388  -51.5692 N.am      4 UNK        -0.4237 
     55 C          31.0307  -49.1169  -52.7281 C.2       3 UNK         0.4908 
     56 O          30.6314  -48.5126  -53.7249 O.2       3 UNK        -0.5102 
     57 CA         31.2469  -50.6368  -52.7990 C.3       3 UNK         0.0241 
     58 CB         30.6016  -51.2734  -54.0438 C.3       3 UNK        -0.1971 
     59 N          32.6855  -50.9004  -52.8178 N.am      3 UNK        -0.4139 
     60 C          33.4633  -50.9811  -51.7304 C.2       2 UNK         0.5016 
     61 O          33.0299  -50.9882  -50.5773 O.2       2 UNK        -0.5319 
     62 CA         34.9813  -50.9861  -51.9751 C.3       2 UNK         0.0286 
     63 CB         35.4749  -52.4013  -52.3166 C.3       2 UNK        -0.1963 
     64 N          35.3908  -50.0502  -53.0308 N.am      2 UNK        -0.4790 
     65 C          35.2948  -48.7140  -52.9407 C.2       1 UNK         0.5024 
     66 O          34.8497  -48.1273  -51.9510 O.2       1 UNK        -0.4888 
     67 H67        37.7740  -44.7924  -51.6789 H         1 UNK         0.0892 
     68 H68        36.8196  -44.2059  -53.0421 H         1 UNK         0.0892 
     69 H69        38.5497  -44.4926  -53.2367 H         1 UNK         0.0892 
     70 H70        35.5515  -45.8369  -53.9113 H         1 UNK         0.3107 
     71 H71        36.6309  -48.4403  -54.5814 H         1 UNK         0.0773 
     72 H72        34.2994  -48.8413  -55.4966 H         1 UNK         0.0680 
     73 H73        35.1719  -47.5310  -56.2158 H         1 UNK         0.0680 
     74 H74        34.4596  -44.8204  -55.8244 H         1 UNK         0.0650 
     75 H75        33.8068  -45.8127  -57.1096 H         1 UNK         0.0650 
     76 H76        32.8851  -43.3255  -54.4864 H         1 UNK         0.1397 
     77 H77        29.1805  -42.2761  -56.3864 H         1 UNK         0.1363 
     78 H78        31.5572  -45.4844  -57.9433 H         1 UNK         0.1355 
     79 H79        28.7683  -43.2366  -58.6951 H         1 UNK         0.0707 
     80 H80        29.6791  -44.6254  -59.2279 H         1 UNK         0.0707 
     81 H81        26.3499  -43.6460  -58.4003 H         1 UNK         0.1034 
     82 H82        26.8484  -43.3869  -56.7441 H         1 UNK         0.1034 
     83 H83        25.4544  -45.2226  -55.9491 H         1 UNK         0.0482 
     84 H84        22.8309  -44.8521  -58.0483 H         1 UNK         0.3460 
     85 H85        22.1853  -43.3902  -57.3407 H         1 UNK         0.3460 
     86 H86        25.3375  -46.0748  -58.7006 H         1 UNK         0.2989 
     87 H87        24.1239  -49.2250  -57.6539 H         1 UNK         0.0559 
     88 H88        23.0748  -49.1942  -59.9180 H         1 UNK         0.0848 
     89 H89        23.1307  -47.4321  -59.9328 H         1 UNK         0.0848 
     90 H90        22.1401  -48.2708  -58.7531 H         1 UNK         0.0848 
     91 H91        26.1216  -49.3069  -58.5362 H         1 UNK         0.3144 
     92 H92        27.5243  -49.2087  -60.8155 H         1 UNK         0.0727 
     93 H93        29.2928  -47.5475  -61.4653 H         1 UNK         0.0790 
     94 H94        28.3289  -46.2451  -60.7708 H         1 UNK         0.0790 
     95 H95        27.7351  -47.1374  -62.1653 H         1 UNK         0.0790 
     96 H96        28.2916  -47.6132  -58.4060 H         1 UNK         0.3215 
     97 H97        29.7261  -50.4705  -56.9486 H         1 UNK         0.0863 
     98 H98        31.6637  -49.0041  -56.4175 H         1 UNK         0.0808 
     99 H99        31.2105  -47.8955  -57.7088 H         1 UNK         0.0808 
    100 H100       31.7439  -49.5265  -58.0916 H         1 UNK         0.0808 
    101 H101       29.5500  -47.9764  -55.7891 H         1 UNK         0.3118 
    102 H102       26.3564  -47.4521  -55.0587 H         1 UNK         0.0546 
    103 H103       26.0034  -49.6066  -53.8499 H         1 UNK         0.0828 
    104 H104       26.3630  -48.3184  -52.7126 H         1 UNK         0.0828 
    105 H105       27.6082  -49.4923  -53.1360 H         1 UNK         0.0828 
    106 H106       29.1736  -47.4527  -54.0771 H         1 UNK         0.3005 
    107 H107       29.6989  -44.7739  -54.5620 H         1 UNK         0.1257 
    108 H108       28.4542  -43.6942  -51.9899 H         1 UNK         0.0775 
    109 H109       28.3001  -42.9888  -53.5777 H         1 UNK         0.0775 
    110 H110       29.8548  -41.0726  -54.4405 H         1 UNK         0.0840 
    111 H111       31.5697  -40.9996  -54.1123 H         1 UNK         0.0840 
    112 H112       31.1693  -45.8668  -53.4247 H         1 UNK         0.2987 
    113 H113       32.3415  -46.7289  -51.8346 H         1 UNK         0.0785 
    114 H114       31.0282  -47.3619  -49.1444 H         1 UNK         0.0798 
    115 H115       31.8849  -45.8722  -49.5194 H         1 UNK         0.0798 
    116 H116       32.7527  -47.3988  -49.5176 H         1 UNK         0.0798 
    117 H117       31.7314  -49.1573  -50.8483 H         1 UNK         0.3079 
    118 H118       30.7916  -51.0875  -51.9144 H         1 UNK         0.0794 
    119 H119       29.5357  -51.0473  -54.0932 H         1 UNK         0.0786 
    120 H120       30.7032  -52.3585  -54.0294 H         1 UNK         0.0786 
    121 H121       31.0571  -50.9088  -54.9641 H         1 UNK         0.0786 
    122 H122       33.1376  -50.8583  -53.7192 H         1 UNK         0.3032 
    123 H123       35.4610  -50.6727  -51.0446 H         1 UNK         0.1094 
    124 H124       35.0522  -52.7653  -53.2539 H         1 UNK         0.0794 
    125 H125       36.5612  -52.4325  -52.4030 H         1 UNK         0.0794 
    126 H126       35.1943  -53.1102  -51.5360 H         1 UNK         0.0794 
    127 H127       35.7799  -50.4562  -53.8704 H         1 UNK         0.3016 
@<TRIPOS>BOND
     1    1    2 1    
     2    1   67 1    
     3    1   68 1    
     4    1   69 1    
     5    2    3 2    
     6    2    4 am   BACKBONE|DICT|INTERRES
     7    4    5 1    
     8    4   70 1    
     9    5    6 1    
    10    5   65 1    
    11    5   71 1    
    12    6    7 1    
    13    6   72 1    
    14    6   73 1    
    15    7    8 1    
    16    8    9 1    
    17    8   74 1    
    18    8   75 1    
    19    9   10 ar   
    20    9   14 ar   
    21   10   11 ar   
    22   10   76 1    
    23   11   12 ar   
    24   11   48 1    
    25   12   13 ar   
    26   12   77 1    
    27   13   14 ar   
    28   13   15 1    
    29   14   78 1    
    30   15   16 1    
    31   15   79 1    
    32   15   80 1    
    33   16   17 1    
    34   17   18 1    
    35   17   81 1    
    36   17   82 1    
    37   18   19 1    
    38   18   22 1    
    39   18   83 1    
    40   19   20 am   BACKBONE|DICT|INTERRES
    41   19   21 2    
    42   20   84 1    
    43   20   85 1    
    44   22   23 am   BACKBONE|DICT|INTERRES
    45   22   86 1    
    46   23   24 2    
    47   23   25 1    
    48   25   26 1    
    49   25   27 1    
    50   25   87 1    
    51   26   88 1    
    52   26   89 1    
    53   26   90 1    
    54   27   28 am   BACKBONE|DICT|INTERRES
    55   27   91 1    
    56   28   29 2    
    57   28   30 1    
    58   30   31 1    
    59   30   32 1    
    60   30   92 1    
    61   31   93 1    
    62   31   94 1    
    63   31   95 1    
    64   32   33 am   BACKBONE|DICT|INTERRES
    65   32   96 1    
    66   33   34 2    
    67   33   35 1    
    68   35   36 1    
    69   35   37 1    
    70   35   97 1    
    71   36   98 1    
    72   36   99 1    
    73   36  100 1    
    74   37   38 am   BACKBONE|DICT|INTERRES
    75   37  101 1    
    76   38   39 2    
    77   38   40 1    
    78   40   41 1    
    79   40   42 1    
    80   40  102 1    
    81   41  103 1    
    82   41  104 1    
    83   41  105 1    
    84   42   43 am   BACKBONE|DICT|INTERRES
    85   42  106 1    
    86   43   44 2    
    87   43   45 1    
    88   45   46 1    
    89   45   49 1    
    90   45  107 1    
    91   46   47 1    
    92   46  108 1    
    93   46  109 1    
    94   47   48 1    
    95   48  110 1    
    96   48  111 1    
    97   49   50 am   BACKBONE|DICT|INTERRES
    98   49  112 1    
    99   50   51 2    
   100   50   52 1    
   101   52   53 1    
   102   52   54 1    
   103   52  113 1    
   104   53  114 1    
   105   53  115 1    
   106   53  116 1    
   107   54   55 am   BACKBONE|DICT|INTERRES
   108   54  117 1    
   109   55   56 2    
   110   55   57 1    
   111   57   58 1    
   112   57   59 1    
   113   57  118 1    
   114   58  119 1    
   115   58  120 1    
   116   58  121 1    
   117   59   60 am   BACKBONE|DICT|INTERRES
   118   59  122 1    
   119   60   61 2    
   120   60   62 1    
   121   62   63 1    
   122   62   64 1    
   123   62  123 1    
   124   63  124 1    
   125   63  125 1    
   126   63  126 1    
   127   64   65 am   BACKBONE|DICT|INTERRES
   128   64  127 1    
   129   65   66 2    
@<TRIPOS>SUBSTRUCTURE
     1 UNK         1 GROUP             0       ****    0 ROOT    
