@<TRIPOS>MOLECULE
3R134
127   129    1
SMALL
USER_CHARGES


@<TRIPOS>ATOM
      1 CA         37.8278  -43.2967  -51.9594 C.3       0 UNK        -0.1968 
      2 C          37.3156  -44.6701  -52.3686 C.2       0 UNK         0.4852 
      3 O          38.0638  -45.6469  -52.3005 O.2       0 UNK        -0.5359 
      4 N          36.0506  -44.7494  -52.8000 N.am      1 UNK        -0.4300 
      5 CA         35.3743  -45.9916  -53.1841 C.3       1 UNK         0.0863 
      6 C6         34.0662  -45.7213  -53.9663 C.3       11 UNK        -0.0953 
      7 S7         34.3244  -44.8274  -55.5375 S.3       11 UNK        -0.2369 
      8 C8         33.5686  -43.1998  -55.2068 C.3       11 UNK         0.0226 
      9 C9         32.0555  -43.2897  -55.0594 C.ar      11 UNK        -0.0699 
     10 C10        31.4816  -43.3856  -53.7893 C.ar      11 UNK        -0.0804 
     11 C11        30.1021  -43.5365  -53.6413 C.ar      11 UNK        -0.0871 
     12 C12        29.2840  -43.5318  -54.7739 C.ar      11 UNK        -0.1008 
     13 C13        29.8411  -43.4045  -56.0498 C.ar      11 UNK        -0.0735 
     14 C14        31.2289  -43.2894  -56.1879 C.ar      11 UNK        -0.0945 
     15 C15        28.9419  -43.4394  -57.2748 C.3       11 UNK         0.0169 
     16 S16        27.8346  -41.9965  -57.3445 S.3       11 UNK        -0.2669 
     17 C17        26.8980  -42.3527  -58.8703 C.3       11 UNK        -0.0850 
     18 CA         25.5101  -42.9977  -58.6090 C.3       10 UNK         0.0855 
     19 C          24.7123  -43.1067  -59.9431 C.2       10 UNK         0.5543 
     20 N          24.5155  -44.2918  -60.5107 N.am      10 UNK        -0.7343 
     21 O          24.2656  -42.0916  -60.4713 O.2       10 UNK        -0.5027 
     22 N          25.6310  -44.2661  -57.8741 N.am      10 UNK        -0.4495 
     23 C          24.6219  -44.9401  -57.3084 C.2       10 UNK         0.4903 
     24 O          23.4803  -44.4897  -57.2001 O.2       10 UNK        -0.4860 
     25 CA         24.9379  -46.3589  -56.7832 C.3       9 UNK         0.0227 
     26 CB         23.7372  -47.3155  -56.9347 C.3       9 UNK        -0.1964 
     27 N          26.1484  -46.9722  -57.3541 N.am      9 UNK        -0.4231 
     28 C          26.4143  -47.2017  -58.6512 C.2       9 UNK         0.5014 
     29 O          25.6642  -46.8820  -59.5750 O.2       9 UNK        -0.5270 
     30 CA         27.7623  -47.8611  -58.9784 C.3       8 UNK         0.0284 
     31 CB         28.8987  -46.8269  -58.9347 C.3       8 UNK        -0.1977 
     32 N          28.0734  -48.9803  -58.0873 N.am      8 UNK        -0.4342 
     33 C          27.4848  -50.1831  -58.1673 C.2       8 UNK         0.5039 
     34 O          26.6452  -50.4803  -59.0184 O.2       8 UNK        -0.5547 
     35 CA         27.8997  -51.2385  -57.1283 C.3       7 UNK         0.0281 
     36 CB         29.2548  -51.8620  -57.4962 C.3       7 UNK        -0.1963 
     37 N          27.9467  -50.7032  -55.7665 N.am      7 UNK        -0.4444 
     38 C          26.8686  -50.2964  -55.0807 C.2       7 UNK         0.5104 
     39 O          25.7146  -50.3703  -55.5031 O.2       7 UNK        -0.5100 
     40 CA         27.1166  -49.6966  -53.6876 C.3       6 UNK         0.0396 
     41 CB         27.1502  -50.8009  -52.6195 C.3       6 UNK        -0.1801 
     42 N          28.3477  -48.9093  -53.6138 N.am      6 UNK        -0.4747 
     43 C          28.5555  -47.7524  -54.2590 C.2       6 UNK         0.5012 
     44 O          27.7394  -47.2295  -55.0192 O.2       6 UNK        -0.5003 
     45 CA         29.9376  -47.0991  -54.0503 C.3       5 UNK         0.0782 
     46 C46        30.1116  -46.5283  -52.6130 C.3       11 UNK        -0.0868 
     47 S47        28.7714  -45.4006  -52.0692 S.3       11 UNK        -0.2515 
     48 C48        29.5078  -43.7442  -52.2572 C.3       11 UNK         0.0199 
     49 N          31.0100  -48.0418  -54.3943 N.am      5 UNK        -0.4607 
     50 C          31.1687  -48.6127  -55.6019 C.2       4 UNK         0.5031 
     51 O          30.4758  -48.3416  -56.5812 O.2       4 UNK        -0.5119 
     52 CA         32.2310  -49.7201  -55.7452 C.3       4 UNK         0.0263 
     53 CB         33.5580  -49.1404  -56.2601 C.3       4 UNK        -0.1967 
     54 N          32.4710  -50.4760  -54.5159 N.am      4 UNK        -0.4237 
     55 C          31.5426  -51.1300  -53.8013 C.2       3 UNK         0.4908 
     56 O          30.3783  -51.2839  -54.1727 O.2       3 UNK        -0.5102 
     57 CA         31.9666  -51.6446  -52.4106 C.3       3 UNK         0.0241 
     58 CB         32.1915  -53.1644  -52.4491 C.3       3 UNK        -0.1971 
     59 N          33.1619  -50.9898  -51.8542 N.am      3 UNK        -0.4139 
     60 C          33.2994  -49.6739  -51.6253 C.2       2 UNK         0.5016 
     61 O          32.4067  -48.8541  -51.8524 O.2       2 UNK        -0.5319 
     62 CA         34.6718  -49.1696  -51.1411 C.3       2 UNK         0.0286 
     63 CB         35.7386  -50.2743  -50.9885 C.3       2 UNK        -0.1963 
     64 N          35.1533  -48.1736  -52.1005 N.am      2 UNK        -0.4790 
     65 C          35.0568  -46.8483  -51.9413 C.2       1 UNK         0.5024 
     66 O          34.6848  -46.3022  -50.8991 O.2       1 UNK        -0.4888 
     67 H67        38.6921  -43.0231  -52.5641 H         1 UNK         0.0892 
     68 H68        38.1326  -43.3067  -50.9133 H         1 UNK         0.0892 
     69 H69        37.0693  -42.5240  -52.0841 H         1 UNK         0.0892 
     70 H70        35.4776  -43.9193  -52.8115 H         1 UNK         0.3107 
     71 H71        36.0512  -46.5552  -53.8303 H         1 UNK         0.0773 
     72 H72        33.3659  -45.1815  -53.3338 H         1 UNK         0.0680 
     73 H73        33.5666  -46.6586  -54.2120 H         1 UNK         0.0680 
     74 H74        34.0178  -42.7639  -54.3134 H         1 UNK         0.0650 
     75 H75        33.8147  -42.5266  -56.0292 H         1 UNK         0.0650 
     76 H76        32.1135  -43.3750  -52.9121 H         1 UNK         0.1397 
     77 H77        28.2142  -43.6500  -54.6641 H         1 UNK         0.1363 
     78 H78        31.6701  -43.2142  -57.1724 H         1 UNK         0.1355 
     79 H79        28.3449  -44.3495  -57.2382 H         1 UNK         0.0707 
     80 H80        29.5349  -43.4867  -58.1896 H         1 UNK         0.0707 
     81 H81        27.4964  -42.9806  -59.5334 H         1 UNK         0.1034 
     82 H82        26.7761  -41.4032  -59.3958 H         1 UNK         0.1034 
     83 H83        24.9437  -42.3154  -57.9721 H         1 UNK         0.0482 
     84 H84        24.8877  -45.1405  -60.0954 H         1 UNK         0.3460 
     85 H85        23.9958  -44.3442  -61.3720 H         1 UNK         0.3460 
     86 H86        26.5287  -44.7195  -57.9175 H         1 UNK         0.2989 
     87 H87        25.1368  -46.2455  -55.7167 H         1 UNK         0.0559 
     88 H88        23.9671  -48.3041  -56.5367 H         1 UNK         0.0848 
     89 H89        23.4459  -47.4341  -57.9788 H         1 UNK         0.0848 
     90 H90        22.8661  -46.9453  -56.3930 H         1 UNK         0.0848 
     91 H91        26.8492  -47.2303  -56.6607 H         1 UNK         0.3144 
     92 H92        27.7011  -48.2430  -59.9999 H         1 UNK         0.0727 
     93 H93        29.8344  -47.2572  -59.2923 H         1 UNK         0.0790 
     94 H94        29.0724  -46.4612  -57.9227 H         1 UNK         0.0790 
     95 H95        28.6753  -45.9663  -59.5668 H         1 UNK         0.0790 
     96 H96        28.7970  -48.8216  -57.3893 H         1 UNK         0.3215 
     97 H97        27.1502  -52.0330  -57.1420 H         1 UNK         0.0863 
     98 H98        29.5833  -52.5817  -56.7459 H         1 UNK         0.0808 
     99 H99        30.0297  -51.1045  -57.6020 H         1 UNK         0.0808 
    100 H100       29.1902  -52.3902  -58.4483 H         1 UNK         0.0808 
    101 H101       28.8504  -50.6765  -55.3028 H         1 UNK         0.3118 
    102 H102       26.2818  -49.0297  -53.4615 H         1 UNK         0.0546 
    103 H103       26.2302  -51.3868  -52.6367 H         1 UNK         0.0828 
    104 H104       27.2471  -50.3822  -51.6177 H         1 UNK         0.0828 
    105 H105       27.9789  -51.4923  -52.7771 H         1 UNK         0.0828 
    106 H106       29.1010  -49.2957  -53.0631 H         1 UNK         0.3005 
    107 H107       30.0069  -46.2691  -54.7563 H         1 UNK         0.1257 
    108 H108       31.0714  -46.0176  -52.5279 H         1 UNK         0.0775 
    109 H109       30.1548  -47.3451  -51.8907 H         1 UNK         0.0775 
    110 H110       28.7400  -42.9904  -52.0774 H         1 UNK         0.0840 
    111 H111       30.2623  -43.6043  -51.4814 H         1 UNK         0.0840 
    112 H112       31.5970  -48.3465  -53.6235 H         1 UNK         0.2987 
    113 H113       31.8664  -50.4275  -56.4897 H         1 UNK         0.0785 
    114 H114       34.0363  -48.4955  -55.5241 H         1 UNK         0.0798 
    115 H115       33.4013  -48.5456  -57.1613 H         1 UNK         0.0798 
    116 H116       34.2616  -49.9325  -56.5172 H         1 UNK         0.0798 
    117 H117       33.4021  -50.4266  -54.1323 H         1 UNK         0.3079 
    118 H118       31.1369  -51.4380  -51.7315 H         1 UNK         0.0794 
    119 H119       33.0304  -53.4328  -53.0926 H         1 UNK         0.0786 
    120 H120       31.3094  -53.6802  -52.8318 H         1 UNK         0.0786 
    121 H121       32.3890  -53.5627  -51.4537 H         1 UNK         0.0786 
    122 H122       33.9469  -51.5911  -51.6483 H         1 UNK         0.3032 
    123 H123       34.5126  -48.7145  -50.1607 H         1 UNK         0.1094 
    124 H124       35.9466  -50.7844  -51.9301 H         1 UNK         0.0794 
    125 H125       36.6798  -49.8543  -50.6325 H         1 UNK         0.0794 
    126 H126       35.4345  -51.0235  -50.2561 H         1 UNK         0.0794 
    127 H127       35.4633  -48.5287  -52.9937 H         1 UNK         0.3016 
@<TRIPOS>BOND
     1    1    2 1    
     2    1   67 1    
     3    1   68 1    
     4    1   69 1    
     5    2    3 2    
     6    2    4 am   BACKBONE|DICT|INTERRES
     7    4    5 1    
     8    4   70 1    
     9    5    6 1    
    10    5   65 1    
    11    5   71 1    
    12    6    7 1    
    13    6   72 1    
    14    6   73 1    
    15    7    8 1    
    16    8    9 1    
    17    8   74 1    
    18    8   75 1    
    19    9   10 ar   
    20    9   14 ar   
    21   10   11 ar   
    22   10   76 1    
    23   11   12 ar   
    24   11   48 1    
    25   12   13 ar   
    26   12   77 1    
    27   13   14 ar   
    28   13   15 1    
    29   14   78 1    
    30   15   16 1    
    31   15   79 1    
    32   15   80 1    
    33   16   17 1    
    34   17   18 1    
    35   17   81 1    
    36   17   82 1    
    37   18   19 1    
    38   18   22 1    
    39   18   83 1    
    40   19   20 am   BACKBONE|DICT|INTERRES
    41   19   21 2    
    42   20   84 1    
    43   20   85 1    
    44   22   23 am   BACKBONE|DICT|INTERRES
    45   22   86 1    
    46   23   24 2    
    47   23   25 1    
    48   25   26 1    
    49   25   27 1    
    50   25   87 1    
    51   26   88 1    
    52   26   89 1    
    53   26   90 1    
    54   27   28 am   BACKBONE|DICT|INTERRES
    55   27   91 1    
    56   28   29 2    
    57   28   30 1    
    58   30   31 1    
    59   30   32 1    
    60   30   92 1    
    61   31   93 1    
    62   31   94 1    
    63   31   95 1    
    64   32   33 am   BACKBONE|DICT|INTERRES
    65   32   96 1    
    66   33   34 2    
    67   33   35 1    
    68   35   36 1    
    69   35   37 1    
    70   35   97 1    
    71   36   98 1    
    72   36   99 1    
    73   36  100 1    
    74   37   38 am   BACKBONE|DICT|INTERRES
    75   37  101 1    
    76   38   39 2    
    77   38   40 1    
    78   40   41 1    
    79   40   42 1    
    80   40  102 1    
    81   41  103 1    
    82   41  104 1    
    83   41  105 1    
    84   42   43 am   BACKBONE|DICT|INTERRES
    85   42  106 1    
    86   43   44 2    
    87   43   45 1    
    88   45   46 1    
    89   45   49 1    
    90   45  107 1    
    91   46   47 1    
    92   46  108 1    
    93   46  109 1    
    94   47   48 1    
    95   48  110 1    
    96   48  111 1    
    97   49   50 am   BACKBONE|DICT|INTERRES
    98   49  112 1    
    99   50   51 2    
   100   50   52 1    
   101   52   53 1    
   102   52   54 1    
   103   52  113 1    
   104   53  114 1    
   105   53  115 1    
   106   53  116 1    
   107   54   55 am   BACKBONE|DICT|INTERRES
   108   54  117 1    
   109   55   56 2    
   110   55   57 1    
   111   57   58 1    
   112   57   59 1    
   113   57  118 1    
   114   58  119 1    
   115   58  120 1    
   116   58  121 1    
   117   59   60 am   BACKBONE|DICT|INTERRES
   118   59  122 1    
   119   60   61 2    
   120   60   62 1    
   121   62   63 1    
   122   62   64 1    
   123   62  123 1    
   124   63  124 1    
   125   63  125 1    
   126   63  126 1    
   127   64   65 am   BACKBONE|DICT|INTERRES
   128   64  127 1    
   129   65   66 2    
@<TRIPOS>SUBSTRUCTURE
     1 UNK         1 GROUP             0       ****    0 ROOT    
