@<TRIPOS>MOLECULE
3R134
127   129    1
SMALL
USER_CHARGES


@<TRIPOS>ATOM
      1 CA         36.5792  -45.2922  -46.5935 C.3       0 UNK        -0.1968 
      2 C          36.2276  -45.1156  -48.0637 C.2       0 UNK         0.4852 
      3 O          37.1258  -44.9466  -48.8902 O.2       0 UNK        -0.5359 
      4 N          34.9295  -45.1457  -48.3933 N.am      1 UNK        -0.4300 
      5 CA         34.4102  -45.0634  -49.7618 C.3       1 UNK         0.0863 
      6 C6         32.9059  -44.6866  -49.7610 C.3       11 UNK        -0.0953 
      7 S7         32.4088  -43.7851  -51.2651 S.3       11 UNK        -0.2369 
      8 C8         31.4632  -45.0744  -52.1272 C.3       11 UNK         0.0226 
      9 C9         31.0464  -44.6351  -53.5220 C.ar      11 UNK        -0.0699 
     10 C10        32.0113  -44.4797  -54.5185 C.ar      11 UNK        -0.0804 
     11 C11        31.6414  -44.1128  -55.8144 C.ar      11 UNK        -0.0871 
     12 C12        30.2917  -43.9051  -56.1110 C.ar      11 UNK        -0.1008 
     13 C13        29.3057  -44.0655  -55.1262 C.ar      11 UNK        -0.0735 
     14 C14        29.6999  -44.4193  -53.8303 C.ar      11 UNK        -0.0945 
     15 C15        27.8080  -43.8886  -55.3993 C.3       11 UNK         0.0169 
     16 S16        27.3577  -43.2432  -57.0485 S.3       11 UNK        -0.2669 
     17 C17        27.5022  -44.7327  -58.1001 C.3       11 UNK        -0.0850 
     18 CA         26.3247  -44.8386  -59.1062 C.3       10 UNK         0.0855 
     19 C          26.5778  -45.9226  -60.1953 C.2       10 UNK         0.5543 
     20 N          25.6672  -46.8569  -60.4468 N.am      10 UNK        -0.7343 
     21 O          27.6180  -45.9022  -60.8482 O.2       10 UNK        -0.5027 
     22 N          25.0307  -44.9802  -58.4203 N.am      10 UNK        -0.4495 
     23 C          23.8712  -44.4850  -58.8746 C.2       10 UNK         0.4903 
     24 O          23.7819  -43.7719  -59.8758 O.2       10 UNK        -0.4860 
     25 CA         22.5941  -44.8469  -58.0833 C.3       9 UNK         0.0227 
     26 CB         21.3169  -44.7589  -58.9464 C.3       9 UNK        -0.1964 
     27 N          22.6665  -46.1471  -57.4027 N.am      9 UNK        -0.4231 
     28 C          22.8927  -47.3412  -57.9688 C.2       9 UNK         0.5014 
     29 O          23.0411  -47.5240  -59.1796 O.2       9 UNK        -0.5270 
     30 CA         23.0344  -48.5299  -57.0042 C.3       8 UNK         0.0284 
     31 CB         21.9369  -49.5766  -57.2587 C.3       8 UNK        -0.1977 
     32 N          24.3511  -49.1640  -57.1169 N.am      8 UNK        -0.4342 
     33 C          25.5249  -48.5443  -56.9325 C.2       8 UNK         0.5039 
     34 O          25.6326  -47.3489  -56.6384 O.2       8 UNK        -0.5547 
     35 CA         26.7828  -49.4076  -57.1314 C.3       7 UNK         0.0281 
     36 CB         27.1179  -49.5627  -58.6232 C.3       7 UNK        -0.1963 
     37 N          27.9331  -48.8129  -56.4576 N.am      7 UNK        -0.4444 
     38 C          28.1602  -48.8383  -55.1425 C.2       7 UNK         0.5104 
     39 O          27.4922  -49.5144  -54.3567 O.2       7 UNK        -0.5100 
     40 CA         29.3076  -47.9455  -54.6186 C.3       6 UNK         0.0396 
     41 CB         29.5751  -48.1782  -53.1205 C.3       6 UNK        -0.1801 
     42 N          30.5769  -48.0738  -55.3457 N.am      6 UNK        -0.4747 
     43 C          30.8391  -47.6935  -56.6066 C.2       6 UNK         0.5012 
     44 O          29.9936  -47.2035  -57.3572 O.2       6 UNK        -0.5003 
     45 CA         32.2653  -47.9541  -57.1414 C.3       5 UNK         0.0782 
     46 C46        33.1966  -46.7241  -57.0152 C.3       11 UNK        -0.0868 
     47 S47        32.7224  -45.3210  -58.0817 S.3       11 UNK        -0.2515 
     48 C48        32.7004  -43.9377  -56.8946 C.3       11 UNK         0.0199 
     49 N          32.8662  -49.1086  -56.4703 N.am      5 UNK        -0.4607 
     50 C          32.7283  -50.3817  -56.8612 C.2       4 UNK         0.5031 
     51 O          32.1193  -50.7225  -57.8751 O.2       4 UNK        -0.5119 
     52 CA         33.3878  -51.4617  -55.9823 C.3       4 UNK         0.0263 
     53 CB         34.7700  -51.8353  -56.5421 C.3       4 UNK        -0.1967 
     54 N          33.5295  -51.0589  -54.5798 N.am      4 UNK        -0.4237 
     55 C          32.5111  -50.9583  -53.7138 C.2       3 UNK         0.4908 
     56 O          31.3518  -51.2694  -53.9849 O.2       3 UNK        -0.5102 
     57 CA         32.8284  -50.3917  -52.3166 C.3       3 UNK         0.0241 
     58 CB         33.1009  -51.5341  -51.3250 C.3       3 UNK        -0.1971 
     59 N          33.9441  -49.4373  -52.2752 N.am      3 UNK        -0.4139 
     60 C          34.0072  -48.2878  -52.9610 C.2       2 UNK         0.5016 
     61 O          33.1483  -47.9260  -53.7668 O.2       2 UNK        -0.5319 
     62 CA         35.2424  -47.4027  -52.7214 C.3       2 UNK         0.0286 
     63 CB         35.8048  -46.8594  -54.0469 C.3       2 UNK        -0.1963 
     64 N          34.9424  -46.2773  -51.8330 N.am      2 UNK        -0.4790 
     65 C          34.6807  -46.3808  -50.5231 C.2       1 UNK         0.5024 
     66 O          34.6479  -47.4556  -49.9175 O.2       1 UNK        -0.4888 
     67 H67        37.2105  -46.1706  -46.4621 H         1 UNK         0.0892 
     68 H68        37.1257  -44.4219  -46.2311 H         1 UNK         0.0892 
     69 H69        35.6916  -45.4170  -45.9734 H         1 UNK         0.0892 
     70 H70        34.2422  -45.3232  -47.6749 H         1 UNK         0.3107 
     71 H71        34.9665  -44.2648  -50.2585 H         1 UNK         0.0773 
     72 H72        32.6914  -44.0135  -48.9291 H         1 UNK         0.0680 
     73 H73        32.2684  -45.5589  -49.6014 H         1 UNK         0.0680 
     74 H74        30.5914  -45.3392  -51.5270 H         1 UNK         0.0650 
     75 H75        32.0724  -45.9744  -52.2060 H         1 UNK         0.0650 
     76 H76        33.0515  -44.6524  -54.2802 H         1 UNK         0.1397 
     77 H77        30.0266  -43.6323  -57.1212 H         1 UNK         0.1363 
     78 H78        28.9499  -44.5493  -53.0621 H         1 UNK         0.1355 
     79 H79        27.4055  -43.1965  -54.6583 H         1 UNK         0.0707 
     80 H80        27.2978  -44.8395  -55.2365 H         1 UNK         0.0707 
     81 H81        28.4569  -44.6754  -58.6265 H         1 UNK         0.1034 
     82 H82        27.5577  -45.6303  -57.4816 H         1 UNK         0.1034 
     83 H83        26.3099  -43.8975  -59.6592 H         1 UNK         0.0482 
     84 H84        24.7919  -46.8941  -59.9356 H         1 UNK         0.3460 
     85 H85        25.8494  -47.5332  -61.1701 H         1 UNK         0.3460 
     86 H86        25.0290  -45.6100  -57.6245 H         1 UNK         0.2989 
     87 H87        22.5102  -44.0975  -57.2950 H         1 UNK         0.0559 
     88 H88        21.3568  -45.4398  -59.7974 H         1 UNK         0.0848 
     89 H89        21.1783  -43.7522  -59.3426 H         1 UNK         0.0848 
     90 H90        20.4268  -45.0002  -58.3655 H         1 UNK         0.0848 
     91 H91        22.6009  -46.1099  -56.3943 H         1 UNK         0.3144 
     92 H92        22.9309  -48.1714  -55.9779 H         1 UNK         0.0727 
     93 H93        21.9912  -50.3943  -56.5397 H         1 UNK         0.0790 
     94 H94        20.9453  -49.1311  -57.1665 H         1 UNK         0.0790 
     95 H95        22.0096  -50.0029  -58.2603 H         1 UNK         0.0790 
     96 H96        24.3563  -50.1356  -57.3915 H         1 UNK         0.3215 
     97 H97        26.5968  -50.3961  -56.7055 H         1 UNK         0.0863 
     98 H98        26.2680  -49.9514  -59.1856 H         1 UNK         0.0808 
     99 H99        27.9473  -50.2549  -58.7700 H         1 UNK         0.0808 
    100 H100       27.4001  -48.6102  -59.0716 H         1 UNK         0.0808 
    101 H101       28.5255  -48.1947  -57.0081 H         1 UNK         0.3118 
    102 H102       28.9700  -46.9169  -54.7420 H         1 UNK         0.0546 
    103 H103       30.4188  -47.5903  -52.7659 H         1 UNK         0.0828 
    104 H104       29.7912  -49.2263  -52.9128 H         1 UNK         0.0828 
    105 H105       28.7077  -47.8994  -52.5211 H         1 UNK         0.0828 
    106 H106       31.3571  -48.4253  -54.8037 H         1 UNK         0.3005 
    107 H107       32.1639  -48.1839  -58.2049 H         1 UNK         0.1257 
    108 H108       34.2122  -47.0042  -57.2995 H         1 UNK         0.0775 
    109 H109       33.2629  -46.4080  -55.9759 H         1 UNK         0.0775 
    110 H110       33.6918  -43.8299  -56.4517 H         1 UNK         0.0840 
    111 H111       32.5099  -43.0111  -57.4381 H         1 UNK         0.0840 
    112 H112       33.3263  -48.9099  -55.5902 H         1 UNK         0.2987 
    113 H113       32.7522  -52.3492  -56.0213 H         1 UNK         0.0785 
    114 H114       34.6937  -52.1676  -57.5785 H         1 UNK         0.0798 
    115 H115       35.2210  -52.6503  -55.9757 H         1 UNK         0.0798 
    116 H116       35.4579  -50.9890  -56.5216 H         1 UNK         0.0798 
    117 H117       34.4541  -50.8013  -54.2666 H         1 UNK         0.3079 
    118 H118       31.9398  -49.8561  -51.9778 H         1 UNK         0.0794 
    119 H119       33.2173  -51.1581  -50.3082 H         1 UNK         0.0786 
    120 H120       34.0037  -52.0884  -51.5848 H         1 UNK         0.0786 
    121 H121       32.2738  -52.2457  -51.3115 H         1 UNK         0.0786 
    122 H122       34.6755  -49.6347  -51.6064 H         1 UNK         0.3032 
    123 H123       36.0206  -48.0115  -52.2553 H         1 UNK         0.1094 
    124 H124       35.1193  -46.1582  -54.5226 H         1 UNK         0.0794 
    125 H125       36.7523  -46.3433  -53.8913 H         1 UNK         0.0794 
    126 H126       35.9904  -47.6671  -54.7563 H         1 UNK         0.0794 
    127 H127       34.9182  -45.3621  -52.2589 H         1 UNK         0.3016 
@<TRIPOS>BOND
     1    1    2 1    
     2    1   67 1    
     3    1   68 1    
     4    1   69 1    
     5    2    3 2    
     6    2    4 am   BACKBONE|DICT|INTERRES
     7    4    5 1    
     8    4   70 1    
     9    5    6 1    
    10    5   65 1    
    11    5   71 1    
    12    6    7 1    
    13    6   72 1    
    14    6   73 1    
    15    7    8 1    
    16    8    9 1    
    17    8   74 1    
    18    8   75 1    
    19    9   10 ar   
    20    9   14 ar   
    21   10   11 ar   
    22   10   76 1    
    23   11   12 ar   
    24   11   48 1    
    25   12   13 ar   
    26   12   77 1    
    27   13   14 ar   
    28   13   15 1    
    29   14   78 1    
    30   15   16 1    
    31   15   79 1    
    32   15   80 1    
    33   16   17 1    
    34   17   18 1    
    35   17   81 1    
    36   17   82 1    
    37   18   19 1    
    38   18   22 1    
    39   18   83 1    
    40   19   20 am   BACKBONE|DICT|INTERRES
    41   19   21 2    
    42   20   84 1    
    43   20   85 1    
    44   22   23 am   BACKBONE|DICT|INTERRES
    45   22   86 1    
    46   23   24 2    
    47   23   25 1    
    48   25   26 1    
    49   25   27 1    
    50   25   87 1    
    51   26   88 1    
    52   26   89 1    
    53   26   90 1    
    54   27   28 am   BACKBONE|DICT|INTERRES
    55   27   91 1    
    56   28   29 2    
    57   28   30 1    
    58   30   31 1    
    59   30   32 1    
    60   30   92 1    
    61   31   93 1    
    62   31   94 1    
    63   31   95 1    
    64   32   33 am   BACKBONE|DICT|INTERRES
    65   32   96 1    
    66   33   34 2    
    67   33   35 1    
    68   35   36 1    
    69   35   37 1    
    70   35   97 1    
    71   36   98 1    
    72   36   99 1    
    73   36  100 1    
    74   37   38 am   BACKBONE|DICT|INTERRES
    75   37  101 1    
    76   38   39 2    
    77   38   40 1    
    78   40   41 1    
    79   40   42 1    
    80   40  102 1    
    81   41  103 1    
    82   41  104 1    
    83   41  105 1    
    84   42   43 am   BACKBONE|DICT|INTERRES
    85   42  106 1    
    86   43   44 2    
    87   43   45 1    
    88   45   46 1    
    89   45   49 1    
    90   45  107 1    
    91   46   47 1    
    92   46  108 1    
    93   46  109 1    
    94   47   48 1    
    95   48  110 1    
    96   48  111 1    
    97   49   50 am   BACKBONE|DICT|INTERRES
    98   49  112 1    
    99   50   51 2    
   100   50   52 1    
   101   52   53 1    
   102   52   54 1    
   103   52  113 1    
   104   53  114 1    
   105   53  115 1    
   106   53  116 1    
   107   54   55 am   BACKBONE|DICT|INTERRES
   108   54  117 1    
   109   55   56 2    
   110   55   57 1    
   111   57   58 1    
   112   57   59 1    
   113   57  118 1    
   114   58  119 1    
   115   58  120 1    
   116   58  121 1    
   117   59   60 am   BACKBONE|DICT|INTERRES
   118   59  122 1    
   119   60   61 2    
   120   60   62 1    
   121   62   63 1    
   122   62   64 1    
   123   62  123 1    
   124   63  124 1    
   125   63  125 1    
   126   63  126 1    
   127   64   65 am   BACKBONE|DICT|INTERRES
   128   64  127 1    
   129   65   66 2    
@<TRIPOS>SUBSTRUCTURE
     1 UNK         1 GROUP             0       ****    0 ROOT    
