@<TRIPOS>MOLECULE
3R134
127   129    1
SMALL
USER_CHARGES


@<TRIPOS>ATOM
      1 CA         35.0929  -47.6722  -48.3779 C.3       0 UNK        -0.1968 
      2 C          35.8461  -47.7791  -49.6959 C.2       0 UNK         0.4852 
      3 O          36.7927  -48.5617  -49.7979 O.2       0 UNK        -0.5359 
      4 N          35.4385  -46.9931  -50.7003 N.am      1 UNK        -0.4300 
      5 CA         35.9810  -47.0182  -52.0614 C.3       1 UNK         0.0863 
      6 C6         35.6312  -45.7171  -52.8312 C.3       11 UNK        -0.0953 
      7 S7         33.8413  -45.4203  -53.0460 S.3       11 UNK        -0.2369 
      8 C8         33.8852  -43.8575  -53.9728 C.3       11 UNK         0.0226 
      9 C9         32.4980  -43.4558  -54.4499 C.ar      11 UNK        -0.0699 
     10 C10        31.5570  -42.9696  -53.5390 C.ar      11 UNK        -0.0804 
     11 C11        30.2774  -42.6020  -53.9667 C.ar      11 UNK        -0.0871 
     12 C12        29.9560  -42.6824  -55.3237 C.ar      11 UNK        -0.1008 
     13 C13        30.8809  -43.1874  -56.2420 C.ar      11 UNK        -0.0735 
     14 C14        32.1516  -43.5691  -55.7996 C.ar      11 UNK        -0.0945 
     15 C15        30.5046  -43.3370  -57.7083 C.3       11 UNK         0.0169 
     16 S16        29.2487  -44.6355  -57.9387 S.3       11 UNK        -0.2669 
     17 C17        27.6911  -43.6720  -57.9276 C.3       11 UNK        -0.0850 
     18 CA         26.5977  -44.2571  -58.8596 C.3       10 UNK         0.0855 
     19 C          27.0137  -44.2031  -60.3624 C.2       10 UNK         0.5543 
     20 N          27.2086  -45.3248  -61.0476 N.am      10 UNK        -0.7343 
     21 O          27.1518  -43.1153  -60.9169 O.2       10 UNK        -0.5027 
     22 N          26.1445  -45.5651  -58.3700 N.am      10 UNK        -0.4495 
     23 C          25.0704  -46.2358  -58.8024 C.2       10 UNK         0.4903 
     24 O          24.2468  -45.7739  -59.5940 O.2       10 UNK        -0.4860 
     25 CA         24.9062  -47.6715  -58.2642 C.3       9 UNK         0.0227 
     26 CB         23.9841  -48.5390  -59.1455 C.3       9 UNK        -0.1964 
     27 N          26.1874  -48.3538  -58.0349 N.am      9 UNK        -0.4231 
     28 C          27.1708  -48.5843  -58.9196 C.2       9 UNK         0.5014 
     29 O          27.1197  -48.2416  -60.1023 O.2       9 UNK        -0.5270 
     30 CA         28.4442  -49.2827  -58.4003 C.3       8 UNK         0.0284 
     31 CB         29.6434  -48.3254  -58.4594 C.3       8 UNK        -0.1977 
     32 N          28.3123  -49.7927  -57.0313 N.am      8 UNK        -0.4342 
     33 C          27.6831  -50.9270  -56.6986 C.2       8 UNK         0.5039 
     34 O          27.2529  -51.7398  -57.5177 O.2       8 UNK        -0.5547 
     35 CA         27.4307  -51.1561  -55.1995 C.3       7 UNK         0.0281 
     36 CB         28.6547  -51.7713  -54.5012 C.3       7 UNK        -0.1963 
     37 N          27.0007  -49.9262  -54.5182 N.am      7 UNK        -0.4444 
     38 C          25.7832  -49.3860  -54.6852 C.2       7 UNK         0.5104 
     39 O          24.9329  -49.8544  -55.4413 O.2       7 UNK        -0.5100 
     40 CA         25.4313  -48.1186  -53.8933 C.3       6 UNK         0.0396 
     41 CB         24.7259  -48.4925  -52.5804 C.3       6 UNK        -0.1801 
     42 N          26.5739  -47.2610  -53.5907 N.am      6 UNK        -0.4747 
     43 C          27.1772  -46.4258  -54.4456 C.2       6 UNK         0.5012 
     44 O          26.9216  -46.3797  -55.6489 O.2       6 UNK        -0.5003 
     45 CA         28.2375  -45.4788  -53.8417 C.3       5 UNK         0.0782 
     46 C46        27.6020  -44.4909  -52.8167 C.3       11 UNK        -0.0868 
     47 S47        28.7784  -43.4999  -51.8281 S.3       11 UNK        -0.2515 
     48 C48        29.2391  -42.1446  -52.9545 C.3       11 UNK         0.0199 
     49 N          29.4079  -46.2178  -53.3607 N.am      5 UNK        -0.4607 
     50 C          29.4789  -47.1104  -52.3662 C.2       4 UNK         0.5031 
     51 O          28.5527  -47.3419  -51.5862 O.2       4 UNK        -0.5119 
     52 CA         30.7932  -47.9094  -52.2487 C.3       4 UNK         0.0263 
     53 CB         30.5533  -49.3393  -51.7221 C.3       4 UNK        -0.1967 
     54 N          31.5998  -47.9619  -53.4787 N.am      4 UNK        -0.4237 
     55 C          31.2290  -48.3936  -54.6978 C.2       3 UNK         0.4908 
     56 O          30.0805  -48.7210  -54.9988 O.2       3 UNK        -0.5102 
     57 CA         32.3303  -48.4725  -55.7611 C.3       3 UNK         0.0241 
     58 CB         32.5144  -47.1043  -56.4475 C.3       3 UNK        -0.1971 
     59 N          33.5784  -48.9367  -55.1575 N.am      3 UNK        -0.4139 
     60 C          34.7052  -49.2888  -55.7826 C.2       2 UNK         0.5016 
     61 O          34.8405  -49.2922  -57.0075 O.2       2 UNK        -0.5319 
     62 CA         35.8856  -49.6792  -54.8640 C.3       2 UNK         0.0286 
     63 CB         37.1494  -50.0668  -55.6547 C.3       2 UNK        -0.1963 
     64 N          36.2286  -48.6074  -53.9188 N.am      2 UNK        -0.4790 
     65 C          35.5210  -48.2760  -52.8297 C.2       1 UNK         0.5024 
     66 O          34.5015  -48.8796  -52.4804 O.2       1 UNK        -0.4888 
     67 H67        35.7747  -47.3856  -47.5777 H         1 UNK         0.0892 
     68 H68        34.2937  -46.9325  -48.4235 H         1 UNK         0.0892 
     69 H69        34.6498  -48.6340  -48.1211 H         1 UNK         0.0892 
     70 H70        34.6392  -46.3899  -50.5696 H         1 UNK         0.3107 
     71 H71        37.0690  -47.0718  -51.9800 H         1 UNK         0.0773 
     72 H72        36.1026  -45.7200  -53.8158 H         1 UNK         0.0680 
     73 H73        36.0560  -44.8602  -52.3057 H         1 UNK         0.0680 
     74 H74        34.2968  -43.0719  -53.3375 H         1 UNK         0.0650 
     75 H75        34.5643  -43.9604  -54.8206 H         1 UNK         0.0650 
     76 H76        31.8123  -42.9028  -52.4900 H         1 UNK         0.1397 
     77 H77        28.9724  -42.3886  -55.6614 H         1 UNK         0.1363 
     78 H78        32.8720  -43.9568  -56.5068 H         1 UNK         0.1355 
     79 H79        30.1590  -42.3819  -58.1050 H         1 UNK         0.0707 
     80 H80        31.3818  -43.6069  -58.2984 H         1 UNK         0.0707 
     81 H81        27.3171  -43.6362  -56.9035 H         1 UNK         0.1034 
     82 H82        27.8911  -42.6357  -58.2045 H         1 UNK         0.1034 
     83 H83        25.7326  -43.5962  -58.7793 H         1 UNK         0.0482 
     84 H84        27.1024  -46.2303  -60.6043 H         1 UNK         0.3460 
     85 H85        27.4730  -45.2700  -62.0177 H         1 UNK         0.3460 
     86 H86        26.7298  -45.9997  -57.6647 H         1 UNK         0.2989 
     87 H87        24.4355  -47.5751  -57.2849 H         1 UNK         0.0559 
     88 H88        22.9869  -48.1034  -59.2190 H         1 UNK         0.0848 
     89 H89        23.8685  -49.5402  -58.7300 H         1 UNK         0.0848 
     90 H90        24.3720  -48.6386  -60.1599 H         1 UNK         0.0848 
     91 H91        26.3458  -48.6597  -57.0854 H         1 UNK         0.3144 
     92 H92        28.6451  -50.1192  -59.0728 H         1 UNK         0.0727 
     93 H93        29.5577  -47.5393  -57.7099 H         1 UNK         0.0790 
     94 H94        29.7242  -47.8417  -59.4340 H         1 UNK         0.0790 
     95 H95        30.5783  -48.8567  -58.2893 H         1 UNK         0.0790 
     96 H96        28.7171  -49.2299  -56.2857 H         1 UNK         0.3215 
     97 H97        26.6172  -51.8809  -55.1171 H         1 UNK         0.0863 
     98 H98        28.4597  -51.9524  -53.4442 H         1 UNK         0.0808 
     99 H99        29.5384  -51.1409  -54.5766 H         1 UNK         0.0808 
    100 H100       28.9096  -52.7317  -54.9508 H         1 UNK         0.0808 
    101 H101       27.6676  -49.4632  -53.9167 H         1 UNK         0.3118 
    102 H102       24.7292  -47.5410  -54.4988 H         1 UNK         0.0546 
    103 H103       25.3840  -49.0499  -51.9126 H         1 UNK         0.0828 
    104 H104       23.8500  -49.1148  -52.7700 H         1 UNK         0.0828 
    105 H105       24.3813  -47.6055  -52.0486 H         1 UNK         0.0828 
    106 H106       26.9401  -47.2890  -52.6422 H         1 UNK         0.3005 
    107 H107       28.6044  -44.8885  -54.6799 H         1 UNK         0.1257 
    108 H108       26.9164  -43.8126  -53.3275 H         1 UNK         0.0775 
    109 H109       26.9918  -45.0334  -52.0926 H         1 UNK         0.0775 
    110 H110       28.3475  -41.7505  -53.4446 H         1 UNK         0.0840 
    111 H111       29.6543  -41.3241  -52.3675 H         1 UNK         0.0840 
    112 H112       30.2314  -46.1148  -53.9351 H         1 UNK         0.2987 
    113 H113       31.3992  -47.3805  -51.5115 H         1 UNK         0.0785 
    114 H114       30.0799  -49.3247  -50.7396 H         1 UNK         0.0798 
    115 H115       31.4916  -49.8845  -51.6179 H         1 UNK         0.0798 
    116 H116       29.9056  -49.9095  -52.3879 H         1 UNK         0.0798 
    117 H117       32.5481  -47.6286  -53.3644 H         1 UNK         0.3079 
    118 H118       32.0199  -49.2106  -56.5020 H         1 UNK         0.0794 
    119 H119       33.1260  -47.1882  -57.3455 H         1 UNK         0.0786 
    120 H120       32.9962  -46.3869  -55.7842 H         1 UNK         0.0786 
    121 H121       31.5589  -46.6751  -56.7505 H         1 UNK         0.0786 
    122 H122       33.5848  -49.0162  -54.1437 H         1 UNK         0.3032 
    123 H123       35.5690  -50.5575  -54.2961 H         1 UNK         0.1094 
    124 H124       37.5251  -49.2341  -56.2508 H         1 UNK         0.0794 
    125 H125       37.9496  -50.3927  -54.9899 H         1 UNK         0.0794 
    126 H126       36.9449  -50.8916  -56.3389 H         1 UNK         0.0794 
    127 H127       37.0281  -48.0406  -54.1649 H         1 UNK         0.3016 
@<TRIPOS>BOND
     1    1    2 1    
     2    1   67 1    
     3    1   68 1    
     4    1   69 1    
     5    2    3 2    
     6    2    4 am   BACKBONE|DICT|INTERRES
     7    4    5 1    
     8    4   70 1    
     9    5    6 1    
    10    5   65 1    
    11    5   71 1    
    12    6    7 1    
    13    6   72 1    
    14    6   73 1    
    15    7    8 1    
    16    8    9 1    
    17    8   74 1    
    18    8   75 1    
    19    9   10 ar   
    20    9   14 ar   
    21   10   11 ar   
    22   10   76 1    
    23   11   12 ar   
    24   11   48 1    
    25   12   13 ar   
    26   12   77 1    
    27   13   14 ar   
    28   13   15 1    
    29   14   78 1    
    30   15   16 1    
    31   15   79 1    
    32   15   80 1    
    33   16   17 1    
    34   17   18 1    
    35   17   81 1    
    36   17   82 1    
    37   18   19 1    
    38   18   22 1    
    39   18   83 1    
    40   19   20 am   BACKBONE|DICT|INTERRES
    41   19   21 2    
    42   20   84 1    
    43   20   85 1    
    44   22   23 am   BACKBONE|DICT|INTERRES
    45   22   86 1    
    46   23   24 2    
    47   23   25 1    
    48   25   26 1    
    49   25   27 1    
    50   25   87 1    
    51   26   88 1    
    52   26   89 1    
    53   26   90 1    
    54   27   28 am   BACKBONE|DICT|INTERRES
    55   27   91 1    
    56   28   29 2    
    57   28   30 1    
    58   30   31 1    
    59   30   32 1    
    60   30   92 1    
    61   31   93 1    
    62   31   94 1    
    63   31   95 1    
    64   32   33 am   BACKBONE|DICT|INTERRES
    65   32   96 1    
    66   33   34 2    
    67   33   35 1    
    68   35   36 1    
    69   35   37 1    
    70   35   97 1    
    71   36   98 1    
    72   36   99 1    
    73   36  100 1    
    74   37   38 am   BACKBONE|DICT|INTERRES
    75   37  101 1    
    76   38   39 2    
    77   38   40 1    
    78   40   41 1    
    79   40   42 1    
    80   40  102 1    
    81   41  103 1    
    82   41  104 1    
    83   41  105 1    
    84   42   43 am   BACKBONE|DICT|INTERRES
    85   42  106 1    
    86   43   44 2    
    87   43   45 1    
    88   45   46 1    
    89   45   49 1    
    90   45  107 1    
    91   46   47 1    
    92   46  108 1    
    93   46  109 1    
    94   47   48 1    
    95   48  110 1    
    96   48  111 1    
    97   49   50 am   BACKBONE|DICT|INTERRES
    98   49  112 1    
    99   50   51 2    
   100   50   52 1    
   101   52   53 1    
   102   52   54 1    
   103   52  113 1    
   104   53  114 1    
   105   53  115 1    
   106   53  116 1    
   107   54   55 am   BACKBONE|DICT|INTERRES
   108   54  117 1    
   109   55   56 2    
   110   55   57 1    
   111   57   58 1    
   112   57   59 1    
   113   57  118 1    
   114   58  119 1    
   115   58  120 1    
   116   58  121 1    
   117   59   60 am   BACKBONE|DICT|INTERRES
   118   59  122 1    
   119   60   61 2    
   120   60   62 1    
   121   62   63 1    
   122   62   64 1    
   123   62  123 1    
   124   63  124 1    
   125   63  125 1    
   126   63  126 1    
   127   64   65 am   BACKBONE|DICT|INTERRES
   128   64  127 1    
   129   65   66 2    
@<TRIPOS>SUBSTRUCTURE
     1 UNK         1 GROUP             0       ****    0 ROOT    
