@<TRIPOS>MOLECULE
3R134
127   129    1
SMALL
USER_CHARGES


@<TRIPOS>ATOM
      1 CA         32.7128  -45.4133  -58.1150 C.3       0 UNK        -0.1968 
      2 C          32.5231  -45.2417  -56.6156 C.2       0 UNK         0.4852 
      3 O          31.4201  -44.9162  -56.1799 O.2       0 UNK        -0.5359 
      4 N          33.5894  -45.4645  -55.8367 N.am      1 UNK        -0.4300 
      5 CA         33.6059  -45.3679  -54.3747 C.3       1 UNK         0.0863 
      6 C6         34.7837  -44.5010  -53.8635 C.3       11 UNK        -0.0953 
      7 S7         34.7033  -42.7733  -54.4397 S.3       11 UNK        -0.2369 
      8 C8         33.7829  -41.9669  -53.0899 C.3       11 UNK         0.0226 
      9 C9         32.2776  -42.0584  -53.2982 C.ar      11 UNK        -0.0699 
     10 C10        31.5091  -42.9952  -52.5984 C.ar      11 UNK        -0.0804 
     11 C11        30.1250  -43.0619  -52.7908 C.ar      11 UNK        -0.0871 
     12 C12        29.5094  -42.1598  -53.6643 C.ar      11 UNK        -0.1008 
     13 C13        30.2661  -41.2213  -54.3740 C.ar      11 UNK        -0.0735 
     14 C14        31.6500  -41.1792  -54.1851 C.ar      11 UNK        -0.0945 
     15 C15        29.6038  -40.2264  -55.3226 C.3       11 UNK         0.0169 
     16 S16        28.3591  -40.9736  -56.4250 S.3       11 UNK        -0.2669 
     17 C17        29.3778  -42.1206  -57.4162 C.3       11 UNK        -0.0850 
     18 CA         28.5054  -43.1823  -58.1362 C.3       10 UNK         0.0855 
     19 C          29.3220  -44.0065  -59.1761 C.2       10 UNK         0.5543 
     20 N          29.2515  -45.3326  -59.2007 N.am      10 UNK        -0.7343 
     21 O          30.0229  -43.4252  -60.0009 O.2       10 UNK        -0.5027 
     22 N          27.7578  -44.0051  -57.1733 N.am      10 UNK        -0.4495 
     23 C          26.5496  -44.5302  -57.3962 C.2       10 UNK         0.4903 
     24 O          25.8720  -44.3228  -58.4053 O.2       10 UNK        -0.4860 
     25 CA         26.0097  -45.4638  -56.3005 C.3       9 UNK         0.0227 
     26 CB         24.7960  -44.8388  -55.5944 C.3       9 UNK        -0.1964 
     27 N          25.6537  -46.7875  -56.8199 N.am      9 UNK        -0.4231 
     28 C          26.4994  -47.6092  -57.4563 C.2       9 UNK         0.5014 
     29 O          27.6661  -47.3184  -57.7254 O.2       9 UNK        -0.5270 
     30 CA         25.9567  -48.9804  -57.8688 C.3       8 UNK         0.0284 
     31 CB         25.9032  -49.1178  -59.4021 C.3       8 UNK        -0.1977 
     32 N          26.8125  -50.0147  -57.2905 N.am      8 UNK        -0.4342 
     33 C          26.4363  -51.2784  -57.0560 C.2       8 UNK         0.5039 
     34 O          25.3283  -51.7280  -57.3541 O.2       8 UNK        -0.5547 
     35 CA         27.4485  -52.1969  -56.3501 C.3       7 UNK         0.0281 
     36 CB         28.5914  -52.6093  -57.2931 C.3       7 UNK        -0.1963 
     37 N          27.9889  -51.5796  -55.1379 N.am      7 UNK        -0.4444 
     38 C          27.3175  -51.4723  -53.9816 C.2       7 UNK         0.5104 
     39 O          26.2052  -51.9644  -53.7878 O.2       7 UNK        -0.5100 
     40 CA         27.9863  -50.6728  -52.8461 C.3       6 UNK         0.0396 
     41 CB         28.8295  -51.5961  -51.9535 C.3       6 UNK        -0.1801 
     42 N          28.8155  -49.5654  -53.3260 N.am      6 UNK        -0.4747 
     43 C          28.3516  -48.5026  -54.0007 C.2       6 UNK         0.5012 
     44 O          27.1571  -48.3093  -54.2266 O.2       6 UNK        -0.5003 
     45 CA         29.4069  -47.5218  -54.5555 C.3       5 UNK         0.0782 
     46 C46        29.8000  -46.4480  -53.5077 C.3       11 UNK        -0.0868 
     47 S47        28.4596  -45.2622  -53.1573 S.3       11 UNK        -0.2515 
     48 C48        29.2816  -44.0821  -52.0371 C.3       11 UNK         0.0199 
     49 N          30.5801  -48.2364  -55.0812 N.am      5 UNK        -0.4607 
     50 C          30.5549  -49.0862  -56.1203 C.2       4 UNK         0.5031 
     51 O          29.5445  -49.3453  -56.7675 O.2       4 UNK        -0.5119 
     52 CA         31.8484  -49.8471  -56.4487 C.3       4 UNK         0.0263 
     53 CB         32.7824  -49.0207  -57.3437 C.3       4 UNK        -0.1967 
     54 N          32.5455  -50.2757  -55.2363 N.am      4 UNK        -0.4237 
     55 C          32.1140  -51.2834  -54.4621 C.2       3 UNK         0.4908 
     56 O          31.1447  -51.9888  -54.7424 O.2       3 UNK        -0.5102 
     57 CA         32.8564  -51.5317  -53.1371 C.3       3 UNK         0.0241 
     58 CB         33.9755  -52.5665  -53.3339 C.3       3 UNK        -0.1971 
     59 N          33.4148  -50.3188  -52.5335 N.am      3 UNK        -0.4139 
     60 C          32.7024  -49.2519  -52.1455 C.2       2 UNK         0.5016 
     61 O          31.4776  -49.1774  -52.2463 O.2       2 UNK        -0.5319 
     62 CA         33.4775  -48.0439  -51.5868 C.3       2 UNK         0.0286 
     63 CB         34.9656  -48.3343  -51.2823 C.3       2 UNK        -0.1963 
     64 N          33.3645  -46.8602  -52.4506 N.am      2 UNK        -0.4790 
     65 C          33.6798  -46.7750  -53.7528 C.2       1 UNK         0.5024 
     66 O          34.0409  -47.7377  -54.4352 O.2       1 UNK        -0.4888 
     67 H67        32.5262  -44.4688  -58.6252 H         1 UNK         0.0892 
     68 H68        32.0072  -46.1498  -58.4974 H         1 UNK         0.0892 
     69 H69        33.7201  -45.7440  -58.3667 H         1 UNK         0.0892 
     70 H70        34.4539  -45.7815  -56.2517 H         1 UNK         0.3107 
     71 H71        32.6792  -44.9125  -54.0325 H         1 UNK         0.0773 
     72 H72        34.8305  -44.4994  -52.7731 H         1 UNK         0.0680 
     73 H73        35.7349  -44.9184  -54.1996 H         1 UNK         0.0680 
     74 H74        34.0746  -40.9162  -53.0545 H         1 UNK         0.0650 
     75 H75        34.0715  -42.3887  -52.1263 H         1 UNK         0.0650 
     76 H76        31.9898  -43.6711  -51.9055 H         1 UNK         0.1397 
     77 H77        28.4370  -42.1975  -53.7991 H         1 UNK         0.1363 
     78 H78        32.2451  -40.4540  -54.7234 H         1 UNK         0.1355 
     79 H79        29.1209  -39.4505  -54.7276 H         1 UNK         0.0707 
     80 H80        30.3508  -39.7228  -55.9385 H         1 UNK         0.0707 
     81 H81        29.9436  -41.5259  -58.1356 H         1 UNK         0.1034 
     82 H82        30.1144  -42.6105  -56.7767 H         1 UNK         0.1034 
     83 H83        27.7793  -42.6302  -58.7360 H         1 UNK         0.0482 
     84 H84        28.6691  -45.8486  -58.5475 H         1 UNK         0.3460 
     85 H85        29.7760  -45.8351  -59.8969 H         1 UNK         0.3460 
     86 H86        28.2560  -44.2468  -56.3287 H         1 UNK         0.2989 
     87 H87        26.7901  -45.6166  -55.5539 H         1 UNK         0.0559 
     88 H88        24.4570  -45.4579  -54.7636 H         1 UNK         0.0848 
     89 H89        25.0478  -43.8597  -55.1842 H         1 UNK         0.0848 
     90 H90        23.9575  -44.6999  -56.2781 H         1 UNK         0.0848 
     91 H91        24.7056  -47.0946  -56.6596 H         1 UNK         0.3144 
     92 H92        24.9469  -49.0935  -57.4683 H         1 UNK         0.0727 
     93 H93        25.4661  -50.0699  -59.7031 H         1 UNK         0.0790 
     94 H94        26.8982  -49.0509  -59.8443 H         1 UNK         0.0790 
     95 H95        25.2950  -48.3272  -59.8433 H         1 UNK         0.0790 
     96 H96        27.7538  -49.7081  -57.0363 H         1 UNK         0.3215 
     97 H97        26.9212  -53.1084  -56.0592 H         1 UNK         0.0863 
     98 H98        29.1553  -51.7519  -57.6589 H         1 UNK         0.0808 
     99 H99        28.2015  -53.1349  -58.1656 H         1 UNK         0.0808 
    100 H100       29.2920  -53.2804  -56.7957 H         1 UNK         0.0808 
    101 H101       28.9070  -51.1598  -55.2049 H         1 UNK         0.3118 
    102 H102       27.1916  -50.2436  -52.2324 H         1 UNK         0.0546 
    103 H103       29.6271  -52.0820  -52.5148 H         1 UNK         0.0828 
    104 H104       28.2135  -52.3838  -51.5180 H         1 UNK         0.0828 
    105 H105       29.2854  -51.0468  -51.1296 H         1 UNK         0.0828 
    106 H106       29.8095  -49.6012  -53.1111 H         1 UNK         0.3005 
    107 H107       28.9538  -47.0100  -55.4074 H         1 UNK         0.1257 
    108 H108       30.6436  -45.8700  -53.8771 H         1 UNK         0.0775 
    109 H109       30.1273  -46.9063  -52.5731 H         1 UNK         0.0775 
    110 H110       28.5164  -43.5509  -51.4694 H         1 UNK         0.0840 
    111 H111       29.8784  -44.6286  -51.3051 H         1 UNK         0.0840 
    112 H112       31.4377  -48.1408  -54.5584 H         1 UNK         0.2987 
    113 H113       31.5666  -50.7395  -57.0126 H         1 UNK         0.0785 
    114 H114       33.6534  -49.6013  -57.6477 H         1 UNK         0.0798 
    115 H115       32.2695  -48.7052  -58.2532 H         1 UNK         0.0798 
    116 H116       33.1393  -48.1248  -56.8411 H         1 UNK         0.0798 
    117 H117       33.3226  -49.7037  -54.9241 H         1 UNK         0.3079 
    118 H118       32.1320  -51.9429  -52.4313 H         1 UNK         0.0794 
    119 H119       34.4482  -52.8261  -52.3864 H         1 UNK         0.0786 
    120 H120       34.7507  -52.2008  -54.0086 H         1 UNK         0.0786 
    121 H121       33.5815  -53.4903  -53.7604 H         1 UNK         0.0786 
    122 H122       34.4189  -50.2813  -52.4341 H         1 UNK         0.3032 
    123 H123       32.9911  -47.7933  -50.6424 H         1 UNK         0.1094 
    124 H124       35.5399  -48.5545  -52.1831 H         1 UNK         0.0794 
    125 H125       35.4362  -47.4775  -50.7998 H         1 UNK         0.0794 
    126 H126       35.0743  -49.1779  -50.5990 H         1 UNK         0.0794 
    127 H127       33.0508  -46.0231  -51.9806 H         1 UNK         0.3016 
@<TRIPOS>BOND
     1    1    2 1    
     2    1   67 1    
     3    1   68 1    
     4    1   69 1    
     5    2    3 2    
     6    2    4 am   BACKBONE|DICT|INTERRES
     7    4    5 1    
     8    4   70 1    
     9    5    6 1    
    10    5   65 1    
    11    5   71 1    
    12    6    7 1    
    13    6   72 1    
    14    6   73 1    
    15    7    8 1    
    16    8    9 1    
    17    8   74 1    
    18    8   75 1    
    19    9   10 ar   
    20    9   14 ar   
    21   10   11 ar   
    22   10   76 1    
    23   11   12 ar   
    24   11   48 1    
    25   12   13 ar   
    26   12   77 1    
    27   13   14 ar   
    28   13   15 1    
    29   14   78 1    
    30   15   16 1    
    31   15   79 1    
    32   15   80 1    
    33   16   17 1    
    34   17   18 1    
    35   17   81 1    
    36   17   82 1    
    37   18   19 1    
    38   18   22 1    
    39   18   83 1    
    40   19   20 am   BACKBONE|DICT|INTERRES
    41   19   21 2    
    42   20   84 1    
    43   20   85 1    
    44   22   23 am   BACKBONE|DICT|INTERRES
    45   22   86 1    
    46   23   24 2    
    47   23   25 1    
    48   25   26 1    
    49   25   27 1    
    50   25   87 1    
    51   26   88 1    
    52   26   89 1    
    53   26   90 1    
    54   27   28 am   BACKBONE|DICT|INTERRES
    55   27   91 1    
    56   28   29 2    
    57   28   30 1    
    58   30   31 1    
    59   30   32 1    
    60   30   92 1    
    61   31   93 1    
    62   31   94 1    
    63   31   95 1    
    64   32   33 am   BACKBONE|DICT|INTERRES
    65   32   96 1    
    66   33   34 2    
    67   33   35 1    
    68   35   36 1    
    69   35   37 1    
    70   35   97 1    
    71   36   98 1    
    72   36   99 1    
    73   36  100 1    
    74   37   38 am   BACKBONE|DICT|INTERRES
    75   37  101 1    
    76   38   39 2    
    77   38   40 1    
    78   40   41 1    
    79   40   42 1    
    80   40  102 1    
    81   41  103 1    
    82   41  104 1    
    83   41  105 1    
    84   42   43 am   BACKBONE|DICT|INTERRES
    85   42  106 1    
    86   43   44 2    
    87   43   45 1    
    88   45   46 1    
    89   45   49 1    
    90   45  107 1    
    91   46   47 1    
    92   46  108 1    
    93   46  109 1    
    94   47   48 1    
    95   48  110 1    
    96   48  111 1    
    97   49   50 am   BACKBONE|DICT|INTERRES
    98   49  112 1    
    99   50   51 2    
   100   50   52 1    
   101   52   53 1    
   102   52   54 1    
   103   52  113 1    
   104   53  114 1    
   105   53  115 1    
   106   53  116 1    
   107   54   55 am   BACKBONE|DICT|INTERRES
   108   54  117 1    
   109   55   56 2    
   110   55   57 1    
   111   57   58 1    
   112   57   59 1    
   113   57  118 1    
   114   58  119 1    
   115   58  120 1    
   116   58  121 1    
   117   59   60 am   BACKBONE|DICT|INTERRES
   118   59  122 1    
   119   60   61 2    
   120   60   62 1    
   121   62   63 1    
   122   62   64 1    
   123   62  123 1    
   124   63  124 1    
   125   63  125 1    
   126   63  126 1    
   127   64   65 am   BACKBONE|DICT|INTERRES
   128   64  127 1    
   129   65   66 2    
@<TRIPOS>SUBSTRUCTURE
     1 UNK         1 GROUP             0       ****    0 ROOT    
