@<TRIPOS>MOLECULE
3R134
127   129    1
SMALL
USER_CHARGES


@<TRIPOS>ATOM
      1 CA         38.7211  -47.9945  -54.6743 C.3       0 UNK        -0.1968 
      2 C          37.2316  -47.9725  -54.3696 C.2       0 UNK         0.4852 
      3 O          36.6943  -48.9725  -53.8886 O.2       0 UNK        -0.5359 
      4 N          36.5638  -46.8360  -54.6244 N.am      1 UNK        -0.4300 
      5 CA         35.1173  -46.6356  -54.4456 C.3       1 UNK         0.0863 
      6 C6         34.6570  -45.2590  -54.9924 C.3       11 UNK        -0.0953 
      7 S7         32.8790  -45.2284  -55.4103 S.3       11 UNK        -0.2369 
      8 C8         32.2120  -44.2104  -54.0578 C.3       11 UNK         0.0226 
      9 C9         30.7793  -44.6034  -53.7373 C.ar      11 UNK        -0.0699 
     10 C10        30.5317  -45.6142  -52.8066 C.ar      11 UNK        -0.0804 
     11 C11        29.2259  -46.0123  -52.5088 C.ar      11 UNK        -0.0871 
     12 C12        28.1571  -45.3562  -53.1312 C.ar      11 UNK        -0.1008 
     13 C13        28.3876  -44.3149  -54.0388 C.ar      11 UNK        -0.0735 
     14 C14        29.7036  -43.9517  -54.3462 C.ar      11 UNK        -0.0945 
     15 C15        27.2187  -43.5342  -54.6299 C.3       11 UNK         0.0169 
     16 S16        27.1654  -43.6143  -56.4474 S.3       11 UNK        -0.2669 
     17 C17        25.7153  -42.5621  -56.8055 C.3       11 UNK        -0.0850 
     18 CA         24.4215  -43.3802  -57.1064 C.3       10 UNK         0.0855 
     19 C          23.1389  -42.4979  -57.2156 C.2       10 UNK         0.5543 
     20 N          22.9553  -41.5342  -56.3221 N.am      10 UNK        -0.7343 
     21 O          22.2763  -42.6995  -58.0692 O.2       10 UNK        -0.5027 
     22 N          24.5811  -44.3206  -58.2296 N.am      10 UNK        -0.4495 
     23 C          24.8260  -44.0111  -59.5124 C.2       10 UNK         0.4903 
     24 O          24.9702  -42.8574  -59.9205 O.2       10 UNK        -0.4860 
     25 CA         24.9407  -45.1725  -60.5218 C.3       9 UNK         0.0227 
     26 CB         26.2136  -45.0359  -61.3769 C.3       9 UNK        -0.1964 
     27 N          24.9711  -46.4740  -59.8533 N.am      9 UNK        -0.4231 
     28 C          23.9877  -47.3840  -59.8509 C.2       9 UNK         0.5014 
     29 O          22.9477  -47.2733  -60.5015 O.2       9 UNK        -0.5270 
     30 CA         24.1809  -48.6264  -58.9543 C.3       8 UNK         0.0284 
     31 CB         24.7276  -49.8029  -59.7790 C.3       8 UNK        -0.1977 
     32 N          25.0579  -48.3992  -57.7989 N.am      8 UNK        -0.4342 
     33 C          24.8282  -47.5060  -56.8268 C.2       8 UNK         0.5039 
     34 O          23.7976  -46.8370  -56.7513 O.2       8 UNK        -0.5547 
     35 CA         25.9431  -47.2622  -55.7946 C.3       7 UNK         0.0281 
     36 CB         25.6954  -48.1127  -54.5381 C.3       7 UNK        -0.1963 
     37 N          27.3272  -47.4660  -56.2453 N.am      7 UNK        -0.4444 
     38 C          27.9173  -47.0361  -57.3727 C.2       7 UNK         0.5104 
     39 O          27.3100  -46.5396  -58.3201 O.2       7 UNK        -0.5100 
     40 CA         29.4507  -47.1700  -57.4621 C.3       6 UNK         0.0396 
     41 CB         30.0887  -45.8562  -57.9462 C.3       6 UNK        -0.1801 
     42 N          30.0653  -47.5404  -56.1846 N.am      6 UNK        -0.4747 
     43 C          30.2327  -48.7918  -55.7394 C.2       6 UNK         0.5012 
     44 O          29.8885  -49.7985  -56.3621 O.2       6 UNK        -0.5003 
     45 CA         30.8004  -48.9241  -54.3130 C.3       5 UNK         0.0782 
     46 C46        29.6350  -49.1438  -53.3129 C.3       11 UNK        -0.0868 
     47 S47        30.0566  -48.5681  -51.6395 S.3       11 UNK        -0.2515 
     48 C48        28.9625  -47.1092  -51.4768 C.3       11 UNK         0.0199 
     49 N          31.8222  -49.9721  -54.1939 N.am      5 UNK        -0.4607 
     50 C          32.9232  -50.0830  -54.9493 C.2       4 UNK         0.5031 
     51 O          33.2183  -49.3101  -55.8617 O.2       4 UNK        -0.5119 
     52 CA         33.8719  -51.2359  -54.5963 C.3       4 UNK         0.0263 
     53 CB         34.8361  -51.5753  -55.7488 C.3       4 UNK        -0.1967 
     54 N          34.6614  -50.8660  -53.4249 N.am      4 UNK        -0.4237 
     55 C          34.4055  -51.2536  -52.1693 C.2       3 UNK         0.4908 
     56 O          33.4438  -51.9543  -51.8515 O.2       3 UNK        -0.5102 
     57 CA         35.3864  -50.7825  -51.0868 C.3       3 UNK         0.0241 
     58 CB         36.7487  -51.4816  -51.2384 C.3       3 UNK        -0.1971 
     59 N          35.5712  -49.3340  -51.1579 N.am      3 UNK        -0.4139 
     60 C          35.0536  -48.4518  -50.2911 C.2       2 UNK         0.5016 
     61 O          34.4299  -48.7697  -49.2775 O.2       2 UNK        -0.5319 
     62 CA         35.2625  -46.9533  -50.5938 C.3       2 UNK         0.0286 
     63 CB         36.4206  -46.3916  -49.7532 C.3       2 UNK        -0.1963 
     64 N          35.5118  -46.6572  -52.0084 N.am      2 UNK        -0.4790 
     65 C          34.6324  -46.8756  -52.9976 C.2       1 UNK         0.5024 
     66 O          33.4951  -47.2968  -52.8008 O.2       1 UNK        -0.4888 
     67 H67        39.2858  -48.2024  -53.7659 H         1 UNK         0.0892 
     68 H68        38.9417  -48.7775  -55.3992 H         1 UNK         0.0892 
     69 H69        39.0695  -47.0459  -55.0821 H         1 UNK         0.0892 
     70 H70        37.0684  -46.0487  -55.0070 H         1 UNK         0.3107 
     71 H71        34.6477  -47.4048  -55.0576 H         1 UNK         0.0773 
     72 H72        34.9091  -44.4501  -54.3041 H         1 UNK         0.0680 
     73 H73        35.1885  -45.0339  -55.9183 H         1 UNK         0.0680 
     74 H74        32.2699  -43.1572  -54.3363 H         1 UNK         0.0650 
     75 H75        32.8253  -44.3273  -53.1630 H         1 UNK         0.0650 
     76 H76        31.3615  -46.0977  -52.3116 H         1 UNK         0.1397 
     77 H77        27.1415  -45.6320  -52.8825 H         1 UNK         0.1363 
     78 H78        29.8878  -43.1506  -55.0491 H         1 UNK         0.1355 
     79 H79        26.2701  -43.9005  -54.2344 H         1 UNK         0.0707 
     80 H80        27.3037  -42.4922  -54.3185 H         1 UNK         0.0707 
     81 H81        25.9616  -41.9168  -57.6498 H         1 UNK         0.1034 
     82 H82        25.5686  -41.8888  -55.9607 H         1 UNK         0.1034 
     83 H83        24.2360  -44.0194  -56.2425 H         1 UNK         0.0482 
     84 H84        23.6188  -41.3634  -55.5837 H         1 UNK         0.3460 
     85 H85        22.1192  -40.9736  -56.3789 H         1 UNK         0.3460 
     86 H86        24.4091  -45.2901  -57.9926 H         1 UNK         0.2989 
     87 H87        24.0757  -45.1062  -61.1842 H         1 UNK         0.0559 
     88 H88        27.1132  -45.0422  -60.7596 H         1 UNK         0.0848 
     89 H89        26.2115  -44.1034  -61.9425 H         1 UNK         0.0848 
     90 H90        26.2962  -45.8493  -62.0979 H         1 UNK         0.0848 
     91 H91        25.7950  -46.6377  -59.2728 H         1 UNK         0.3144 
     92 H92        23.1974  -48.9046  -58.5698 H         1 UNK         0.0727 
     93 H93        24.7843  -50.7143  -59.1835 H         1 UNK         0.0790 
     94 H94        25.7238  -49.5926  -60.1706 H         1 UNK         0.0790 
     95 H95        24.0807  -50.0153  -60.6316 H         1 UNK         0.0790 
     96 H96        25.9402  -48.8904  -57.7907 H         1 UNK         0.3215 
     97 H97        25.8689  -46.2121  -55.5073 H         1 UNK         0.0863 
     98 H98        25.8270  -49.1765  -54.7396 H         1 UNK         0.0808 
     99 H99        24.6789  -47.9752  -54.1661 H         1 UNK         0.0808 
    100 H100       26.3695  -47.8378  -53.7277 H         1 UNK         0.0808 
    101 H101       27.9481  -47.8714  -55.5637 H         1 UNK         0.3118 
    102 H102       29.6647  -47.9422  -58.2035 H         1 UNK         0.0546 
    103 H103       31.1694  -45.9543  -58.0491 H         1 UNK         0.0828 
    104 H104       29.8907  -45.0348  -57.2564 H         1 UNK         0.0828 
    105 H105       29.6986  -45.5625  -58.9216 H         1 UNK         0.0828 
    106 H106       30.3604  -46.7679  -55.6009 H         1 UNK         0.3005 
    107 H107       31.3046  -47.9847  -54.0798 H         1 UNK         0.1257 
    108 H108       29.3573  -50.1985  -53.2661 H         1 UNK         0.0775 
    109 H109       28.7291  -48.6211  -53.6239 H         1 UNK         0.0775 
    110 H110       27.9257  -47.4453  -51.5286 H         1 UNK         0.0840 
    111 H111       29.0962  -46.6851  -50.4809 H         1 UNK         0.0840 
    112 H112       31.6887  -50.6349  -53.4435 H         1 UNK         0.2987 
    113 H113       33.2696  -52.1242  -54.3930 H         1 UNK         0.0785 
    114 H114       35.4629  -52.4315  -55.4994 H         1 UNK         0.0798 
    115 H115       34.2862  -51.8280  -56.6562 H         1 UNK         0.0798 
    116 H116       35.4950  -50.7387  -55.9865 H         1 UNK         0.0798 
    117 H117       35.4448  -50.2373  -53.6002 H         1 UNK         0.3079 
    118 H118       34.9715  -51.0680  -50.1177 H         1 UNK         0.0794 
    119 H119       37.4240  -51.2054  -50.4285 H         1 UNK         0.0786 
    120 H120       37.2373  -51.2269  -52.1799 H         1 UNK         0.0786 
    121 H121       36.6361  -52.5663  -51.2107 H         1 UNK         0.0786 
    122 H122       36.0388  -48.9809  -51.9866 H         1 UNK         0.3032 
    123 H123       34.3436  -46.4388  -50.3032 H         1 UNK         0.1094 
    124 H124       37.3720  -46.8568  -50.0144 H         1 UNK         0.0794 
    125 H125       36.5234  -45.3145  -49.8868 H         1 UNK         0.0794 
    126 H126       36.2527  -46.5690  -48.6898 H         1 UNK         0.0794 
    127 H127       36.4310  -46.3162  -52.2507 H         1 UNK         0.3016 
@<TRIPOS>BOND
     1    1    2 1    
     2    1   67 1    
     3    1   68 1    
     4    1   69 1    
     5    2    3 2    
     6    2    4 am   BACKBONE|DICT|INTERRES
     7    4    5 1    
     8    4   70 1    
     9    5    6 1    
    10    5   65 1    
    11    5   71 1    
    12    6    7 1    
    13    6   72 1    
    14    6   73 1    
    15    7    8 1    
    16    8    9 1    
    17    8   74 1    
    18    8   75 1    
    19    9   10 ar   
    20    9   14 ar   
    21   10   11 ar   
    22   10   76 1    
    23   11   12 ar   
    24   11   48 1    
    25   12   13 ar   
    26   12   77 1    
    27   13   14 ar   
    28   13   15 1    
    29   14   78 1    
    30   15   16 1    
    31   15   79 1    
    32   15   80 1    
    33   16   17 1    
    34   17   18 1    
    35   17   81 1    
    36   17   82 1    
    37   18   19 1    
    38   18   22 1    
    39   18   83 1    
    40   19   20 am   BACKBONE|DICT|INTERRES
    41   19   21 2    
    42   20   84 1    
    43   20   85 1    
    44   22   23 am   BACKBONE|DICT|INTERRES
    45   22   86 1    
    46   23   24 2    
    47   23   25 1    
    48   25   26 1    
    49   25   27 1    
    50   25   87 1    
    51   26   88 1    
    52   26   89 1    
    53   26   90 1    
    54   27   28 am   BACKBONE|DICT|INTERRES
    55   27   91 1    
    56   28   29 2    
    57   28   30 1    
    58   30   31 1    
    59   30   32 1    
    60   30   92 1    
    61   31   93 1    
    62   31   94 1    
    63   31   95 1    
    64   32   33 am   BACKBONE|DICT|INTERRES
    65   32   96 1    
    66   33   34 2    
    67   33   35 1    
    68   35   36 1    
    69   35   37 1    
    70   35   97 1    
    71   36   98 1    
    72   36   99 1    
    73   36  100 1    
    74   37   38 am   BACKBONE|DICT|INTERRES
    75   37  101 1    
    76   38   39 2    
    77   38   40 1    
    78   40   41 1    
    79   40   42 1    
    80   40  102 1    
    81   41  103 1    
    82   41  104 1    
    83   41  105 1    
    84   42   43 am   BACKBONE|DICT|INTERRES
    85   42  106 1    
    86   43   44 2    
    87   43   45 1    
    88   45   46 1    
    89   45   49 1    
    90   45  107 1    
    91   46   47 1    
    92   46  108 1    
    93   46  109 1    
    94   47   48 1    
    95   48  110 1    
    96   48  111 1    
    97   49   50 am   BACKBONE|DICT|INTERRES
    98   49  112 1    
    99   50   51 2    
   100   50   52 1    
   101   52   53 1    
   102   52   54 1    
   103   52  113 1    
   104   53  114 1    
   105   53  115 1    
   106   53  116 1    
   107   54   55 am   BACKBONE|DICT|INTERRES
   108   54  117 1    
   109   55   56 2    
   110   55   57 1    
   111   57   58 1    
   112   57   59 1    
   113   57  118 1    
   114   58  119 1    
   115   58  120 1    
   116   58  121 1    
   117   59   60 am   BACKBONE|DICT|INTERRES
   118   59  122 1    
   119   60   61 2    
   120   60   62 1    
   121   62   63 1    
   122   62   64 1    
   123   62  123 1    
   124   63  124 1    
   125   63  125 1    
   126   63  126 1    
   127   64   65 am   BACKBONE|DICT|INTERRES
   128   64  127 1    
   129   65   66 2    
@<TRIPOS>SUBSTRUCTURE
     1 UNK         1 GROUP             0       ****    0 ROOT    
