@<TRIPOS>MOLECULE
3R134
127   129    1
SMALL
USER_CHARGES


@<TRIPOS>ATOM
      1 CA         33.4759  -42.0236  -52.9663 C.3       0 UNK        -0.1968 
      2 C          34.6112  -43.0236  -53.1157 C.2       0 UNK         0.4852 
      3 O          35.6997  -42.8042  -52.5824 O.2       0 UNK        -0.5359 
      4 N          34.3624  -44.1201  -53.8441 N.am      1 UNK        -0.4300 
      5 CA         35.3404  -45.1797  -54.1301 C.3       1 UNK         0.0863 
      6 C6         34.8753  -46.1292  -55.2640 C.3       11 UNK        -0.0953 
      7 S7         34.2601  -45.2902  -56.7613 S.3       11 UNK        -0.2369 
      8 C8         32.5033  -45.7782  -56.7359 C.3       11 UNK         0.0226 
      9 C9         31.7330  -45.0510  -55.6431 C.ar      11 UNK        -0.0699 
     10 C10        31.4274  -45.6888  -54.4351 C.ar      11 UNK        -0.0804 
     11 C11        30.7210  -45.0088  -53.4373 C.ar      11 UNK        -0.0871 
     12 C12        30.3198  -43.6878  -53.6549 C.ar      11 UNK        -0.1008 
     13 C13        30.5978  -43.0505  -54.8663 C.ar      11 UNK        -0.0735 
     14 C14        31.3133  -43.7345  -55.8529 C.ar      11 UNK        -0.0945 
     15 C15        30.0822  -41.6404  -55.1293 C.3       11 UNK         0.0169 
     16 S16        28.2586  -41.5713  -55.2246 S.3       11 UNK        -0.2669 
     17 C17        27.9023  -43.0335  -56.2539 C.3       11 UNK        -0.0850 
     18 CA         26.4369  -43.1185  -56.7546 C.3       10 UNK         0.0855 
     19 C          26.2612  -42.3616  -58.1059 C.2       10 UNK         0.5543 
     20 N          26.1969  -43.0456  -59.2438 N.am      10 UNK        -0.7343 
     21 O          26.1766  -41.1364  -58.1205 O.2       10 UNK        -0.5027 
     22 N          26.0134  -44.5238  -56.7794 N.am      10 UNK        -0.4495 
     23 C          24.7876  -44.9891  -57.0435 C.2       10 UNK         0.4903 
     24 O          23.7882  -44.2760  -57.1434 O.2       10 UNK        -0.4860 
     25 CA         24.6750  -46.5164  -57.2393 C.3       9 UNK         0.0227 
     26 CB         23.5703  -46.9022  -58.2441 C.3       9 UNK        -0.1964 
     27 N          25.9487  -47.1605  -57.6000 N.am      9 UNK        -0.4231 
     28 C          26.7192  -46.9145  -58.6737 C.2       9 UNK         0.5014 
     29 O          26.4594  -46.0679  -59.5307 O.2       9 UNK        -0.5270 
     30 CA         28.0245  -47.7207  -58.7868 C.3       8 UNK         0.0284 
     31 CB         29.1537  -47.0251  -58.0058 C.3       8 UNK        -0.1977 
     32 N          27.8854  -49.1004  -58.3164 N.am      8 UNK        -0.4342 
     33 C          27.1261  -50.0375  -58.9031 C.2       8 UNK         0.5039 
     34 O          26.5135  -49.8673  -59.9578 O.2       8 UNK        -0.5547 
     35 CA         27.0123  -51.3861  -58.1763 C.3       7 UNK         0.0281 
     36 CB         28.2270  -52.2799  -58.4754 C.3       7 UNK        -0.1963 
     37 N          26.8679  -51.2050  -56.7303 N.am      7 UNK        -0.4444 
     38 C          25.7260  -50.8454  -56.1265 C.2       7 UNK         0.5104 
     39 O          24.6564  -50.6937  -56.7166 O.2       7 UNK        -0.5100 
     40 CA         25.7823  -50.6069  -54.6066 C.3       6 UNK         0.0396 
     41 CB         25.4183  -51.8929  -53.8480 C.3       6 UNK        -0.1801 
     42 N          27.0833  -50.1190  -54.1397 N.am      6 UNK        -0.4747 
     43 C          27.5777  -48.9008  -54.4056 C.2       6 UNK         0.5012 
     44 O          26.9895  -48.0583  -55.0840 O.2       6 UNK        -0.5003 
     45 CA         28.9975  -48.6072  -53.8799 C.3       5 UNK         0.0782 
     46 C46        28.9954  -48.1602  -52.3959 C.3       11 UNK        -0.0868 
     47 S47        28.6797  -46.3789  -52.1803 S.3       11 UNK        -0.2515 
     48 C48        30.3674  -45.6898  -52.1251 C.3       11 UNK         0.0199 
     49 N          29.9204  -49.7289  -54.0797 N.am      5 UNK        -0.4607 
     50 C          30.2666  -50.2577  -55.2605 C.2       4 UNK         0.5031 
     51 O          29.7289  -49.9449  -56.3234 O.2       4 UNK        -0.5119 
     52 CA         31.3940  -51.3140  -55.2456 C.3       4 UNK         0.0263 
     53 CB         32.1512  -51.3702  -56.5898 C.3       4 UNK        -0.1967 
     54 N          32.3438  -51.1671  -54.1272 N.am      4 UNK        -0.4237 
     55 C          33.0905  -50.0870  -53.8513 C.2       3 UNK         0.4908 
     56 O          33.0610  -49.0419  -54.5049 O.2       3 UNK        -0.5102 
     57 CA         34.0191  -50.1779  -52.6353 C.3       3 UNK         0.0241 
     58 CB         35.3525  -50.8511  -53.0097 C.3       3 UNK        -0.1971 
     59 N          34.2532  -48.8166  -52.1666 N.am      3 UNK        -0.4139 
     60 C          34.6965  -48.4378  -50.9632 C.2       2 UNK         0.5016 
     61 O          34.9989  -49.2317  -50.0706 O.2       2 UNK        -0.5319 
     62 CA         34.7852  -46.9179  -50.6975 C.3       2 UNK         0.0286 
     63 CB         35.9775  -46.5437  -49.7909 C.3       2 UNK        -0.1963 
     64 N          34.7610  -46.0919  -51.9168 N.am      2 UNK        -0.4790 
     65 C          35.6900  -46.0277  -52.8869 C.2       1 UNK         0.5024 
     66 O          36.7600  -46.6360  -52.8575 O.2       1 UNK        -0.4888 
     67 H67        32.6908  -42.4301  -52.3294 H         1 UNK         0.0892 
     68 H68        33.8328  -41.0973  -52.5166 H         1 UNK         0.0892 
     69 H69        33.0471  -41.7805  -53.9379 H         1 UNK         0.0892 
     70 H70        33.4589  -44.2312  -54.2866 H         1 UNK         0.3107 
     71 H71        36.2615  -44.6926  -54.4575 H         1 UNK         0.0773 
     72 H72        35.6983  -46.7787  -55.5684 H         1 UNK         0.0680 
     73 H73        34.0961  -46.7958  -54.9004 H         1 UNK         0.0680 
     74 H74        32.4203  -46.8603  -56.6167 H         1 UNK         0.0650 
     75 H75        32.0613  -45.5465  -57.7060 H         1 UNK         0.0650 
     76 H76        31.7328  -46.7143  -54.2758 H         1 UNK         0.1397 
     77 H77        29.7558  -43.1641  -52.8947 H         1 UNK         0.1363 
     78 H78        31.5339  -43.2487  -56.7938 H         1 UNK         0.1355 
     79 H79        30.4961  -41.2469  -56.0590 H         1 UNK         0.0707 
     80 H80        30.4234  -40.9749  -54.3352 H         1 UNK         0.0707 
     81 H81        28.1291  -43.8981  -55.6271 H         1 UNK         0.1034 
     82 H82        28.6113  -43.0848  -57.0832 H         1 UNK         0.1034 
     83 H83        25.7879  -42.6246  -56.0290 H         1 UNK         0.0482 
     84 H84        26.2583  -44.0583  -59.2500 H         1 UNK         0.3460 
     85 H85        26.0786  -42.5470  -60.1110 H         1 UNK         0.3460 
     86 H86        26.7513  -45.2070  -56.7061 H         1 UNK         0.2989 
     87 H87        24.3975  -46.9264  -56.2672 H         1 UNK         0.0559 
     88 H88        23.7537  -46.4743  -59.2303 H         1 UNK         0.0848 
     89 H89        22.5943  -46.5468  -57.9117 H         1 UNK         0.0848 
     90 H90        23.4988  -47.9843  -58.3557 H         1 UNK         0.0848 
     91 H91        26.3144  -47.7969  -56.8963 H         1 UNK         0.3144 
     92 H92        28.3049  -47.7525  -59.8417 H         1 UNK         0.0727 
     93 H93        30.1020  -47.5478  -58.1330 H         1 UNK         0.0790 
     94 H94        28.9419  -46.9804  -56.9368 H         1 UNK         0.0790 
     95 H95        29.2988  -46.0013  -58.3534 H         1 UNK         0.0790 
     96 H96        28.4285  -49.3613  -57.4947 H         1 UNK         0.3215 
     97 H97        26.1219  -51.8944  -58.5538 H         1 UNK         0.0863 
     98 H98        28.1328  -53.2527  -57.9925 H         1 UNK         0.0808 
     99 H99        29.1597  -51.8272  -58.1402 H         1 UNK         0.0808 
    100 H100       28.3212  -52.4586  -59.5473 H         1 UNK         0.0808 
    101 H101       27.7090  -51.2624  -56.1745 H         1 UNK         0.3118 
    102 H102       25.0335  -49.8489  -54.3661 H         1 UNK         0.0546 
    103 H103       24.4399  -52.2638  -54.1572 H         1 UNK         0.0828 
    104 H104       25.3709  -51.7204  -52.7727 H         1 UNK         0.0828 
    105 H105       26.1403  -52.6898  -54.0303 H         1 UNK         0.0828 
    106 H106       27.6422  -50.7553  -53.5889 H         1 UNK         0.3005 
    107 H107       29.3878  -47.7889  -54.4889 H         1 UNK         0.1257 
    108 H108       29.9507  -48.3904  -51.9223 H         1 UNK         0.0775 
    109 H109       28.2568  -48.7160  -51.8146 H         1 UNK         0.0775 
    110 H110       30.4179  -44.9626  -51.3130 H         1 UNK         0.0840 
    111 H111       31.1025  -46.4573  -51.8807 H         1 UNK         0.0840 
    112 H112       30.3992  -50.0656  -53.2583 H         1 UNK         0.2987 
    113 H113       30.8997  -52.2763  -55.1053 H         1 UNK         0.0785 
    114 H114       31.4810  -51.6247  -57.4111 H         1 UNK         0.0798 
    115 H115       32.9374  -52.1248  -56.5716 H         1 UNK         0.0798 
    116 H116       32.6116  -50.4119  -56.8335 H         1 UNK         0.0798 
    117 H117       32.4339  -51.9751  -53.5256 H         1 UNK         0.3079 
    118 H118       33.5208  -50.7466  -51.8475 H         1 UNK         0.0794 
    119 H119       35.8795  -50.2923  -53.7844 H         1 UNK         0.0786 
    120 H120       35.1913  -51.8619  -53.3864 H         1 UNK         0.0786 
    121 H121       36.0148  -50.9304  -52.1475 H         1 UNK         0.0786 
    122 H122       33.9995  -48.1104  -52.8456 H         1 UNK         0.3032 
    123 H123       33.8747  -46.6680  -50.1501 H         1 UNK         0.1094 
    124 H124       36.9300  -46.8528  -50.2219 H         1 UNK         0.0794 
    125 H125       36.0208  -45.4688  -49.6152 H         1 UNK         0.0794 
    126 H126       35.8940  -47.0263  -48.8163 H         1 UNK         0.0794 
    127 H127       33.9282  -45.5347  -52.0472 H         1 UNK         0.3016 
@<TRIPOS>BOND
     1    1    2 1    
     2    1   67 1    
     3    1   68 1    
     4    1   69 1    
     5    2    3 2    
     6    2    4 am   BACKBONE|DICT|INTERRES
     7    4    5 1    
     8    4   70 1    
     9    5    6 1    
    10    5   65 1    
    11    5   71 1    
    12    6    7 1    
    13    6   72 1    
    14    6   73 1    
    15    7    8 1    
    16    8    9 1    
    17    8   74 1    
    18    8   75 1    
    19    9   10 ar   
    20    9   14 ar   
    21   10   11 ar   
    22   10   76 1    
    23   11   12 ar   
    24   11   48 1    
    25   12   13 ar   
    26   12   77 1    
    27   13   14 ar   
    28   13   15 1    
    29   14   78 1    
    30   15   16 1    
    31   15   79 1    
    32   15   80 1    
    33   16   17 1    
    34   17   18 1    
    35   17   81 1    
    36   17   82 1    
    37   18   19 1    
    38   18   22 1    
    39   18   83 1    
    40   19   20 am   BACKBONE|DICT|INTERRES
    41   19   21 2    
    42   20   84 1    
    43   20   85 1    
    44   22   23 am   BACKBONE|DICT|INTERRES
    45   22   86 1    
    46   23   24 2    
    47   23   25 1    
    48   25   26 1    
    49   25   27 1    
    50   25   87 1    
    51   26   88 1    
    52   26   89 1    
    53   26   90 1    
    54   27   28 am   BACKBONE|DICT|INTERRES
    55   27   91 1    
    56   28   29 2    
    57   28   30 1    
    58   30   31 1    
    59   30   32 1    
    60   30   92 1    
    61   31   93 1    
    62   31   94 1    
    63   31   95 1    
    64   32   33 am   BACKBONE|DICT|INTERRES
    65   32   96 1    
    66   33   34 2    
    67   33   35 1    
    68   35   36 1    
    69   35   37 1    
    70   35   97 1    
    71   36   98 1    
    72   36   99 1    
    73   36  100 1    
    74   37   38 am   BACKBONE|DICT|INTERRES
    75   37  101 1    
    76   38   39 2    
    77   38   40 1    
    78   40   41 1    
    79   40   42 1    
    80   40  102 1    
    81   41  103 1    
    82   41  104 1    
    83   41  105 1    
    84   42   43 am   BACKBONE|DICT|INTERRES
    85   42  106 1    
    86   43   44 2    
    87   43   45 1    
    88   45   46 1    
    89   45   49 1    
    90   45  107 1    
    91   46   47 1    
    92   46  108 1    
    93   46  109 1    
    94   47   48 1    
    95   48  110 1    
    96   48  111 1    
    97   49   50 am   BACKBONE|DICT|INTERRES
    98   49  112 1    
    99   50   51 2    
   100   50   52 1    
   101   52   53 1    
   102   52   54 1    
   103   52  113 1    
   104   53  114 1    
   105   53  115 1    
   106   53  116 1    
   107   54   55 am   BACKBONE|DICT|INTERRES
   108   54  117 1    
   109   55   56 2    
   110   55   57 1    
   111   57   58 1    
   112   57   59 1    
   113   57  118 1    
   114   58  119 1    
   115   58  120 1    
   116   58  121 1    
   117   59   60 am   BACKBONE|DICT|INTERRES
   118   59  122 1    
   119   60   61 2    
   120   60   62 1    
   121   62   63 1    
   122   62   64 1    
   123   62  123 1    
   124   63  124 1    
   125   63  125 1    
   126   63  126 1    
   127   64   65 am   BACKBONE|DICT|INTERRES
   128   64  127 1    
   129   65   66 2    
@<TRIPOS>SUBSTRUCTURE
     1 UNK         1 GROUP             0       ****    0 ROOT    
