@<TRIPOS>MOLECULE
3R134
127   129    1
SMALL
USER_CHARGES


@<TRIPOS>ATOM
      1 CA         30.1481  -43.5689  -49.6567 C.3       0 UNK        -0.1968 
      2 C          29.3036  -44.8076  -49.9432 C.2       0 UNK         0.4852 
      3 O          28.2493  -44.9703  -49.3303 O.2       0 UNK        -0.5359 
      4 N          29.7134  -45.7073  -50.8454 N.am      1 UNK        -0.4300 
      5 CA         30.9669  -45.7184  -51.6055 C.3       1 UNK         0.0863 
      6 C6         30.7359  -45.4423  -53.1126 C.3       11 UNK        -0.0953 
      7 S7         30.1363  -43.7443  -53.4097 S.3       11 UNK        -0.2369 
      8 C8         31.6565  -42.8856  -53.9279 C.3       11 UNK         0.0226 
      9 C9         31.9557  -43.1475  -55.3947 C.ar      11 UNK        -0.0699 
     10 C10        32.9180  -44.0874  -55.7690 C.ar      11 UNK        -0.0804 
     11 C11        33.1321  -44.3814  -57.1192 C.ar      11 UNK        -0.0871 
     12 C12        32.3923  -43.7099  -58.0980 C.ar      11 UNK        -0.1008 
     13 C13        31.4402  -42.7511  -57.7350 C.ar      11 UNK        -0.0735 
     14 C14        31.2396  -42.4660  -56.3811 C.ar      11 UNK        -0.0945 
     15 C15        30.6294  -42.0324  -58.8056 C.3       11 UNK         0.0169 
     16 S16        28.9320  -42.6880  -58.9378 S.3       11 UNK        -0.2669 
     17 C17        28.0143  -41.5350  -57.8527 C.3       11 UNK        -0.0850 
     18 CA         26.7425  -42.1355  -57.1957 C.3       10 UNK         0.0855 
     19 C          25.5338  -42.1894  -58.1784 C.2       10 UNK         0.5543 
     20 N          24.8545  -43.3147  -58.3609 N.am      10 UNK        -0.7343 
     21 O          25.1890  -41.1738  -58.7781 O.2       10 UNK        -0.5027 
     22 N          27.0315  -43.3898  -56.4810 N.am      10 UNK        -0.4495 
     23 C          26.3454  -43.8471  -55.4255 C.2       10 UNK         0.4903 
     24 O          25.4517  -43.2088  -54.8662 O.2       10 UNK        -0.4860 
     25 CA         26.7084  -45.2640  -54.9286 C.3       9 UNK         0.0227 
     26 CB         25.6618  -45.8433  -53.9550 C.3       9 UNK        -0.1964 
     27 N          26.9716  -46.2246  -56.0085 N.am      9 UNK        -0.4231 
     28 C          26.1826  -46.5169  -57.0549 C.2       9 UNK         0.5014 
     29 O          25.0967  -45.9814  -57.2762 O.2       9 UNK        -0.5270 
     30 CA         26.6997  -47.5872  -58.0237 C.3       8 UNK         0.0284 
     31 CB         27.9204  -47.0769  -58.8117 C.3       8 UNK        -0.1977 
     32 N          27.0419  -48.8140  -57.3042 N.am      8 UNK        -0.4342 
     33 C          26.1897  -49.8206  -57.0637 C.2       8 UNK         0.5039 
     34 O          25.0261  -49.8417  -57.4670 O.2       8 UNK        -0.5547 
     35 CA         26.7154  -51.0214  -56.2538 C.3       7 UNK         0.0281 
     36 CB         27.0901  -52.1785  -57.1942 C.3       7 UNK        -0.1963 
     37 N          27.8731  -50.6905  -55.4213 N.am      7 UNK        -0.4444 
     38 C          27.8064  -50.0265  -54.2574 C.2       7 UNK         0.5104 
     39 O          26.7514  -49.6929  -53.7186 O.2       7 UNK        -0.5100 
     40 CA         29.1455  -49.6442  -53.5966 C.3       6 UNK         0.0396 
     41 CB         29.5525  -50.7234  -52.5818 C.3       6 UNK        -0.1801 
     42 N          30.2361  -49.4381  -54.5585 N.am      6 UNK        -0.4747 
     43 C          30.2132  -48.5321  -55.5501 C.2       6 UNK         0.5012 
     44 O          29.2952  -47.7257  -55.6962 O.2       6 UNK        -0.5003 
     45 CA         31.3386  -48.5465  -56.6034 C.3       5 UNK         0.0782 
     46 C46        32.1816  -47.2591  -56.5066 C.3       11 UNK        -0.0868 
     47 S47        33.2798  -47.0301  -57.9442 S.3       11 UNK        -0.2515 
     48 C48        34.1211  -45.4708  -57.5100 C.3       11 UNK         0.0199 
     49 N          32.1549  -49.7608  -56.5620 N.am      5 UNK        -0.4607 
     50 C          31.7196  -50.9830  -56.8976 C.2       4 UNK         0.5031 
     51 O          30.5796  -51.2094  -57.3052 O.2       4 UNK        -0.5119 
     52 CA         32.6993  -52.1541  -56.7020 C.3       4 UNK         0.0263 
     53 CB         33.3999  -52.4921  -58.0275 C.3       4 UNK        -0.1967 
     54 N          33.7104  -51.9117  -55.6657 N.am      4 UNK        -0.4237 
     55 C          33.4466  -51.7060  -54.3670 C.2       3 UNK         0.4908 
     56 O          32.3077  -51.7303  -53.8976 O.2       3 UNK        -0.5102 
     57 CA         34.6426  -51.4272  -53.4344 C.3       3 UNK         0.0241 
     58 CB         35.9390  -51.0238  -54.1761 C.3       3 UNK        -0.1971 
     59 N          34.3245  -50.4409  -52.3931 N.am      3 UNK        -0.4139 
     60 C          33.9255  -49.1726  -52.5727 C.2       2 UNK         0.5016 
     61 O          33.7444  -48.6487  -53.6745 O.2       2 UNK        -0.5319 
     62 CA         33.7702  -48.3383  -51.2905 C.3       2 UNK         0.0286 
     63 CB         35.1513  -47.9010  -50.7714 C.3       2 UNK        -0.1963 
     64 N          32.9599  -47.1379  -51.5103 N.am      2 UNK        -0.4790 
     65 C          31.6288  -47.0908  -51.3854 C.2       1 UNK         0.5024 
     66 O          30.9358  -48.0655  -51.0847 O.2       1 UNK        -0.4888 
     67 H67        29.6108  -42.8830  -49.0022 H         1 UNK         0.0892 
     68 H68        31.0774  -43.8447  -49.1591 H         1 UNK         0.0892 
     69 H69        30.3850  -43.0296  -50.5724 H         1 UNK         0.0892 
     70 H70        29.1765  -46.5571  -50.9531 H         1 UNK         0.3107 
     71 H71        31.6608  -44.9725  -51.2163 H         1 UNK         0.0773 
     72 H72        31.6489  -45.6062  -53.6860 H         1 UNK         0.0680 
     73 H73        29.9984  -46.1365  -53.5190 H         1 UNK         0.0680 
     74 H74        32.4904  -43.1901  -53.2936 H         1 UNK         0.0650 
     75 H75        31.5262  -41.8141  -53.7699 H         1 UNK         0.0650 
     76 H76        33.4727  -44.6200  -55.0088 H         1 UNK         0.1397 
     77 H77        32.5452  -43.9509  -59.1413 H         1 UNK         0.1363 
     78 H78        30.5084  -41.7316  -56.0807 H         1 UNK         0.1355 
     79 H79        30.6068  -40.9607  -58.6021 H         1 UNK         0.0707 
     80 H80        31.1146  -42.1412  -59.7767 H         1 UNK         0.0707 
     81 H81        28.6723  -41.1831  -57.0614 H         1 UNK         0.1034 
     82 H82        27.7715  -40.6388  -58.4272 H         1 UNK         0.1034 
     83 H83        26.4333  -41.4101  -56.4406 H         1 UNK         0.0482 
     84 H84        24.0737  -43.3134  -58.9970 H         1 UNK         0.3460 
     85 H85        25.0866  -44.1667  -57.8592 H         1 UNK         0.3460 
     86 H86        27.7428  -43.9744  -56.8956 H         1 UNK         0.2989 
     87 H87        27.6453  -45.1633  -54.3804 H         1 UNK         0.0559 
     88 H88        24.6844  -45.9426  -54.4285 H         1 UNK         0.0848 
     89 H89        25.5398  -45.2018  -53.0814 H         1 UNK         0.0848 
     90 H90        25.9603  -46.8275  -53.5933 H         1 UNK         0.0848 
     91 H91        27.8537  -46.7306  -55.9250 H         1 UNK         0.3144 
     92 H92        25.9073  -47.7985  -58.7452 H         1 UNK         0.0727 
     93 H93        28.7631  -46.8327  -58.1647 H         1 UNK         0.0790 
     94 H94        27.6707  -46.1728  -59.3691 H         1 UNK         0.0790 
     95 H95        28.2602  -47.8181  -59.5353 H         1 UNK         0.0790 
     96 H96        27.9527  -48.8409  -56.8654 H         1 UNK         0.3215 
     97 H97        25.9047  -51.3592  -55.6043 H         1 UNK         0.0863 
     98 H98        27.4070  -53.0588  -56.6346 H         1 UNK         0.0808 
     99 H99        27.8989  -51.9026  -57.8723 H         1 UNK         0.0808 
    100 H100       26.2377  -52.4749  -57.8072 H         1 UNK         0.0808 
    101 H101       28.7851  -50.9303  -55.7909 H         1 UNK         0.3118 
    102 H102       28.9972  -48.7040  -53.0619 H         1 UNK         0.0546 
    103 H103       30.4949  -50.4780  -52.0926 H         1 UNK         0.0828 
    104 H104       29.6698  -51.6989  -53.0554 H         1 UNK         0.0828 
    105 H105       28.7991  -50.8271  -51.8001 H         1 UNK         0.0828 
    106 H106       31.0271  -50.0695  -54.4875 H         1 UNK         0.3005 
    107 H107       30.8325  -48.5344  -57.5717 H         1 UNK         0.1257 
    108 H108       31.5171  -46.3943  -56.4606 H         1 UNK         0.0775 
    109 H109       32.7750  -47.2417  -55.5922 H         1 UNK         0.0775 
    110 H110       34.8245  -45.6609  -56.6976 H         1 UNK         0.0840 
    111 H111       34.7191  -45.1383  -58.3597 H         1 UNK         0.0840 
    112 H112       33.0934  -49.6536  -56.2042 H         1 UNK         0.2987 
    113 H113       32.1100  -53.0203  -56.3936 H         1 UNK         0.0785 
    114 H114       34.0232  -51.6680  -58.3770 H         1 UNK         0.0798 
    115 H115       32.6704  -52.7034  -58.8109 H         1 UNK         0.0798 
    116 H116       34.0314  -53.3754  -57.9300 H         1 UNK         0.0798 
    117 H117       34.6727  -51.8767  -55.9699 H         1 UNK         0.3079 
    118 H118       34.8385  -52.3655  -52.9135 H         1 UNK         0.0794 
    119 H119       35.7981  -50.1347  -54.7924 H         1 UNK         0.0786 
    120 H120       36.2997  -51.8261  -54.8207 H         1 UNK         0.0786 
    121 H121       36.7410  -50.8076  -53.4700 H         1 UNK         0.0786 
    122 H122       34.4175  -50.7774  -51.4449 H         1 UNK         0.3032 
    123 H123       33.2931  -48.9619  -50.5302 H         1 UNK         0.1094 
    124 H124       35.0642  -47.3218  -49.8519 H         1 UNK         0.0794 
    125 H125       35.7818  -48.7627  -50.5481 H         1 UNK         0.0794 
    126 H126       35.6831  -47.2911  -51.5031 H         1 UNK         0.0794 
    127 H127       33.4581  -46.3146  -51.8159 H         1 UNK         0.3016 
@<TRIPOS>BOND
     1    1    2 1    
     2    1   67 1    
     3    1   68 1    
     4    1   69 1    
     5    2    3 2    
     6    2    4 am   BACKBONE|DICT|INTERRES
     7    4    5 1    
     8    4   70 1    
     9    5    6 1    
    10    5   65 1    
    11    5   71 1    
    12    6    7 1    
    13    6   72 1    
    14    6   73 1    
    15    7    8 1    
    16    8    9 1    
    17    8   74 1    
    18    8   75 1    
    19    9   10 ar   
    20    9   14 ar   
    21   10   11 ar   
    22   10   76 1    
    23   11   12 ar   
    24   11   48 1    
    25   12   13 ar   
    26   12   77 1    
    27   13   14 ar   
    28   13   15 1    
    29   14   78 1    
    30   15   16 1    
    31   15   79 1    
    32   15   80 1    
    33   16   17 1    
    34   17   18 1    
    35   17   81 1    
    36   17   82 1    
    37   18   19 1    
    38   18   22 1    
    39   18   83 1    
    40   19   20 am   BACKBONE|DICT|INTERRES
    41   19   21 2    
    42   20   84 1    
    43   20   85 1    
    44   22   23 am   BACKBONE|DICT|INTERRES
    45   22   86 1    
    46   23   24 2    
    47   23   25 1    
    48   25   26 1    
    49   25   27 1    
    50   25   87 1    
    51   26   88 1    
    52   26   89 1    
    53   26   90 1    
    54   27   28 am   BACKBONE|DICT|INTERRES
    55   27   91 1    
    56   28   29 2    
    57   28   30 1    
    58   30   31 1    
    59   30   32 1    
    60   30   92 1    
    61   31   93 1    
    62   31   94 1    
    63   31   95 1    
    64   32   33 am   BACKBONE|DICT|INTERRES
    65   32   96 1    
    66   33   34 2    
    67   33   35 1    
    68   35   36 1    
    69   35   37 1    
    70   35   97 1    
    71   36   98 1    
    72   36   99 1    
    73   36  100 1    
    74   37   38 am   BACKBONE|DICT|INTERRES
    75   37  101 1    
    76   38   39 2    
    77   38   40 1    
    78   40   41 1    
    79   40   42 1    
    80   40  102 1    
    81   41  103 1    
    82   41  104 1    
    83   41  105 1    
    84   42   43 am   BACKBONE|DICT|INTERRES
    85   42  106 1    
    86   43   44 2    
    87   43   45 1    
    88   45   46 1    
    89   45   49 1    
    90   45  107 1    
    91   46   47 1    
    92   46  108 1    
    93   46  109 1    
    94   47   48 1    
    95   48  110 1    
    96   48  111 1    
    97   49   50 am   BACKBONE|DICT|INTERRES
    98   49  112 1    
    99   50   51 2    
   100   50   52 1    
   101   52   53 1    
   102   52   54 1    
   103   52  113 1    
   104   53  114 1    
   105   53  115 1    
   106   53  116 1    
   107   54   55 am   BACKBONE|DICT|INTERRES
   108   54  117 1    
   109   55   56 2    
   110   55   57 1    
   111   57   58 1    
   112   57   59 1    
   113   57  118 1    
   114   58  119 1    
   115   58  120 1    
   116   58  121 1    
   117   59   60 am   BACKBONE|DICT|INTERRES
   118   59  122 1    
   119   60   61 2    
   120   60   62 1    
   121   62   63 1    
   122   62   64 1    
   123   62  123 1    
   124   63  124 1    
   125   63  125 1    
   126   63  126 1    
   127   64   65 am   BACKBONE|DICT|INTERRES
   128   64  127 1    
   129   65   66 2    
@<TRIPOS>SUBSTRUCTURE
     1 UNK         1 GROUP             0       ****    0 ROOT    
