@<TRIPOS>MOLECULE
3R134
127   129    1
SMALL
USER_CHARGES


@<TRIPOS>ATOM
      1 CA         33.3655  -43.9954  -59.8920 C.3       0 UNK        -0.1968 
      2 C          32.8294  -44.8209  -58.7323 C.2       0 UNK         0.4852 
      3 O          31.6353  -44.7492  -58.4421 O.2       0 UNK        -0.5359 
      4 N          33.6991  -45.6019  -58.0819 N.am      1 UNK        -0.4300 
      5 CA         33.3813  -46.5017  -56.9732 C.3       1 UNK         0.0863 
      6 C6         33.9607  -45.9769  -55.6256 C.3       11 UNK        -0.0953 
      7 S7         32.6862  -45.8844  -54.3305 S.3       11 UNK        -0.2369 
      8 C8         32.4132  -44.0909  -54.2150 C.3       11 UNK         0.0226 
      9 C9         31.0793  -43.8018  -53.5472 C.ar      11 UNK        -0.0699 
     10 C10        30.9323  -43.9411  -52.1662 C.ar      11 UNK        -0.0804 
     11 C11        29.6839  -43.7548  -51.5641 C.ar      11 UNK        -0.0871 
     12 C12        28.5857  -43.3959  -52.3541 C.ar      11 UNK        -0.1008 
     13 C13        28.7228  -43.2218  -53.7359 C.ar      11 UNK        -0.0735 
     14 C14        29.9789  -43.4280  -54.3199 C.ar      11 UNK        -0.0945 
     15 C15        27.4908  -42.8645  -54.5710 C.3       11 UNK         0.0169 
     16 S16        27.8657  -41.9969  -56.1341 S.3       11 UNK        -0.2669 
     17 C17        26.2110  -41.8387  -56.8903 C.3       11 UNK        -0.0850 
     18 CA         25.6533  -43.1499  -57.5245 C.3       10 UNK         0.0855 
     19 C          24.2609  -42.9372  -58.1920 C.2       10 UNK         0.5543 
     20 N          23.9382  -43.6230  -59.2818 N.am      10 UNK        -0.7343 
     21 O          23.4456  -42.1613  -57.6987 O.2       10 UNK        -0.5027 
     22 N          26.6264  -43.8838  -58.3543 N.am      10 UNK        -0.4495 
     23 C          27.2689  -43.4418  -59.4427 C.2       10 UNK         0.4903 
     24 O          27.1002  -42.3200  -59.9231 O.2       10 UNK        -0.4860 
     25 CA         28.2698  -44.4173  -60.1078 C.3       9 UNK         0.0227 
     26 CB         29.3238  -43.6817  -60.9569 C.3       9 UNK        -0.1964 
     27 N          28.9671  -45.2872  -59.1519 N.am      9 UNK        -0.4231 
     28 C          28.4565  -46.3673  -58.5510 C.2       9 UNK         0.5014 
     29 O          27.3081  -46.7805  -58.7361 O.2       9 UNK        -0.5270 
     30 CA         29.3532  -47.0538  -57.5189 C.3       8 UNK         0.0284 
     31 CB         29.4655  -46.1821  -56.2534 C.3       8 UNK        -0.1977 
     32 N          28.7749  -48.3461  -57.1773 N.am      8 UNK        -0.4342 
     33 C          29.3844  -49.2973  -56.4688 C.2       8 UNK         0.5039 
     34 O          30.5510  -49.2244  -56.0724 O.2       8 UNK        -0.5547 
     35 CA         28.5440  -50.5159  -56.0933 C.3       7 UNK         0.0281 
     36 CB         29.1774  -51.8295  -56.5834 C.3       7 UNK        -0.1963 
     37 N          28.4517  -50.5098  -54.6397 N.am      7 UNK        -0.4444 
     38 C          27.3630  -50.8282  -53.9335 C.2       7 UNK         0.5104 
     39 O          26.3278  -51.2714  -54.4326 O.2       7 UNK        -0.5100 
     40 CA         27.4277  -50.6191  -52.4093 C.3       6 UNK         0.0396 
     41 CB         27.7465  -51.9479  -51.7054 C.3       6 UNK        -0.1801 
     42 N          28.3917  -49.6073  -51.9636 N.am      6 UNK        -0.4747 
     43 C          28.3600  -48.2944  -52.2356 C.2       6 UNK         0.5012 
     44 O          27.5170  -47.7761  -52.9673 O.2       6 UNK        -0.5003 
     45 CA         29.4425  -47.4025  -51.5854 C.3       5 UNK         0.0782 
     46 C46        28.8757  -46.6996  -50.3191 C.3       11 UNK        -0.0868 
     47 S47        30.0724  -45.5896  -49.4993 S.3       11 UNK        -0.2515 
     48 C48        29.5222  -43.9439  -50.0610 C.3       11 UNK         0.0199 
     49 N          30.7276  -48.0926  -51.3743 N.am      5 UNK        -0.4607 
     50 C          31.0369  -49.0411  -50.4812 C.2       4 UNK         0.5031 
     51 O          30.2225  -49.5465  -49.7076 O.2       4 UNK        -0.5119 
     52 CA         32.4854  -49.5645  -50.5189 C.3       4 UNK         0.0263 
     53 CB         32.9024  -50.2168  -49.1878 C.3       4 UNK        -0.1967 
     54 N          32.6742  -50.5319  -51.6040 N.am      4 UNK        -0.4237 
     55 C          32.6902  -50.2227  -52.9066 C.2       3 UNK         0.4908 
     56 O          32.5972  -49.0680  -53.3265 O.2       3 UNK        -0.5102 
     57 CA         32.8245  -51.3882  -53.8971 C.3       3 UNK         0.0241 
     58 CB         31.6866  -52.4135  -53.7324 C.3       3 UNK        -0.1971 
     59 N          32.7937  -50.8444  -55.2526 N.am      3 UNK        -0.4139 
     60 C          33.6228  -51.1634  -56.2513 C.2       2 UNK         0.5016 
     61 O          34.4611  -52.0638  -56.1870 O.2       2 UNK        -0.5319 
     62 CA         33.5240  -50.3209  -57.5331 C.3       2 UNK         0.0286 
     63 CB         32.5158  -50.9390  -58.5153 C.3       2 UNK        -0.1963 
     64 N          33.1310  -48.9369  -57.2425 N.am      2 UNK        -0.4790 
     65 C          33.9485  -47.8817  -57.3467 C.2       1 UNK         0.5024 
     66 O          35.1182  -47.9568  -57.7331 O.2       1 UNK        -0.4888 
     67 H67        33.1953  -42.9354  -59.7056 H         1 UNK         0.0892 
     68 H68        34.4343  -44.1467  -60.0424 H         1 UNK         0.0892 
     69 H69        32.8504  -44.2661  -60.8133 H         1 UNK         0.0892 
     70 H70        34.6554  -45.6670  -58.4054 H         1 UNK         0.3107 
     71 H71        32.2987  -46.6051  -56.8930 H         1 UNK         0.0773 
     72 H72        34.4099  -44.9895  -55.7456 H         1 UNK         0.0680 
     73 H73        34.7679  -46.6063  -55.2449 H         1 UNK         0.0680 
     74 H74        33.2262  -43.6323  -53.6504 H         1 UNK         0.0650 
     75 H75        32.4375  -43.6543  -55.2151 H         1 UNK         0.0650 
     76 H76        31.7829  -44.2319  -51.5646 H         1 UNK         0.1397 
     77 H77        27.6170  -43.2559  -51.8934 H         1 UNK         0.1363 
     78 H78        30.1074  -43.3172  -55.3863 H         1 UNK         0.1355 
     79 H79        26.9552  -43.7874  -54.7958 H         1 UNK         0.0707 
     80 H80        26.8143  -42.2405  -53.9848 H         1 UNK         0.0707 
     81 H81        25.5222  -41.4598  -56.1329 H         1 UNK         0.1034 
     82 H82        26.2721  -41.0572  -57.6495 H         1 UNK         0.1034 
     83 H83        25.4439  -43.8287  -56.6977 H         1 UNK         0.0482 
     84 H84        24.5939  -44.2715  -59.6872 H         1 UNK         0.3460 
     85 H85        23.0321  -43.4883  -59.7021 H         1 UNK         0.3460 
     86 H86        26.7842  -44.8487  -58.0918 H         1 UNK         0.2989 
     87 H87        27.6876  -45.0503  -60.7804 H         1 UNK         0.0559 
     88 H88        29.9269  -43.0065  -60.3483 H         1 UNK         0.0848 
     89 H89        28.8557  -43.0868  -61.7421 H         1 UNK         0.0848 
     90 H90        29.9995  -44.3832  -61.4465 H         1 UNK         0.0848 
     91 H91        29.9147  -45.0058  -58.8933 H         1 UNK         0.3144 
     92 H92        30.3361  -47.2130  -57.9651 H         1 UNK         0.0727 
     93 H93        30.0630  -46.6587  -55.4773 H         1 UNK         0.0790 
     94 H94        28.4879  -45.9575  -55.8246 H         1 UNK         0.0790 
     95 H95        29.9483  -45.2356  -56.4863 H         1 UNK         0.0790 
     96 H96        27.8228  -48.4651  -57.5047 H         1 UNK         0.3215 
     97 H97        27.5493  -50.4169  -56.5341 H         1 UNK         0.0863 
     98 H98        28.6002  -52.6937  -56.2547 H         1 UNK         0.0808 
     99 H99        30.1975  -51.9521  -56.2200 H         1 UNK         0.0808 
    100 H100       29.2131  -51.8588  -57.6728 H         1 UNK         0.0808 
    101 H101       29.2400  -50.0958  -54.1605 H         1 UNK         0.3118 
    102 H102       26.4381  -50.2901  -52.0860 H         1 UNK         0.0546 
    103 H103       28.7400  -52.3148  -51.9665 H         1 UNK         0.0828 
    104 H104       27.0296  -52.7211  -51.9854 H         1 UNK         0.0828 
    105 H105       27.7012  -51.8446  -50.6211 H         1 UNK         0.0828 
    106 H106       29.0855  -49.9078  -51.2864 H         1 UNK         0.3005 
    107 H107       29.6569  -46.6246  -52.3210 H         1 UNK         0.1257 
    108 H108       28.5545  -47.4389  -49.5834 H         1 UNK         0.0775 
    109 H109       27.9815  -46.1267  -50.5724 H         1 UNK         0.0775 
    110 H110       28.4868  -43.7898  -49.7531 H         1 UNK         0.0840 
    111 H111       30.1106  -43.1828  -49.5469 H         1 UNK         0.0840 
    112 H112       31.4483  -47.8628  -52.0514 H         1 UNK         0.2987 
    113 H113       33.1450  -48.7108  -50.6914 H         1 UNK         0.0785 
    114 H114       33.9539  -50.5043  -49.1992 H         1 UNK         0.0798 
    115 H115       32.3130  -51.1081  -48.9685 H         1 UNK         0.0798 
    116 H116       32.7662  -49.5240  -48.3562 H         1 UNK         0.0798 
    117 H117       32.7408  -51.5023  -51.3330 H         1 UNK         0.3079 
    118 H118       33.7842  -51.8739  -53.7087 H         1 UNK         0.0794 
    119 H119       31.7410  -52.9195  -52.7682 H         1 UNK         0.0786 
    120 H120       31.7380  -53.1859  -54.4999 H         1 UNK         0.0786 
    121 H121       30.7063  -51.9428  -53.7987 H         1 UNK         0.0786 
    122 H122       32.1437  -50.0721  -55.3845 H         1 UNK         0.3032 
    123 H123       34.5080  -50.3487  -58.0070 H         1 UNK         0.1094 
    124 H124       32.5122  -50.4032  -59.4644 H         1 UNK         0.0794 
    125 H125       32.7653  -51.9790  -58.7305 H         1 UNK         0.0794 
    126 H126       31.5015  -50.9206  -58.1193 H         1 UNK         0.0794 
    127 H127       32.1876  -48.8107  -56.8779 H         1 UNK         0.3016 
@<TRIPOS>BOND
     1    1    2 1    
     2    1   67 1    
     3    1   68 1    
     4    1   69 1    
     5    2    3 2    
     6    2    4 am   BACKBONE|DICT|INTERRES
     7    4    5 1    
     8    4   70 1    
     9    5    6 1    
    10    5   65 1    
    11    5   71 1    
    12    6    7 1    
    13    6   72 1    
    14    6   73 1    
    15    7    8 1    
    16    8    9 1    
    17    8   74 1    
    18    8   75 1    
    19    9   10 ar   
    20    9   14 ar   
    21   10   11 ar   
    22   10   76 1    
    23   11   12 ar   
    24   11   48 1    
    25   12   13 ar   
    26   12   77 1    
    27   13   14 ar   
    28   13   15 1    
    29   14   78 1    
    30   15   16 1    
    31   15   79 1    
    32   15   80 1    
    33   16   17 1    
    34   17   18 1    
    35   17   81 1    
    36   17   82 1    
    37   18   19 1    
    38   18   22 1    
    39   18   83 1    
    40   19   20 am   BACKBONE|DICT|INTERRES
    41   19   21 2    
    42   20   84 1    
    43   20   85 1    
    44   22   23 am   BACKBONE|DICT|INTERRES
    45   22   86 1    
    46   23   24 2    
    47   23   25 1    
    48   25   26 1    
    49   25   27 1    
    50   25   87 1    
    51   26   88 1    
    52   26   89 1    
    53   26   90 1    
    54   27   28 am   BACKBONE|DICT|INTERRES
    55   27   91 1    
    56   28   29 2    
    57   28   30 1    
    58   30   31 1    
    59   30   32 1    
    60   30   92 1    
    61   31   93 1    
    62   31   94 1    
    63   31   95 1    
    64   32   33 am   BACKBONE|DICT|INTERRES
    65   32   96 1    
    66   33   34 2    
    67   33   35 1    
    68   35   36 1    
    69   35   37 1    
    70   35   97 1    
    71   36   98 1    
    72   36   99 1    
    73   36  100 1    
    74   37   38 am   BACKBONE|DICT|INTERRES
    75   37  101 1    
    76   38   39 2    
    77   38   40 1    
    78   40   41 1    
    79   40   42 1    
    80   40  102 1    
    81   41  103 1    
    82   41  104 1    
    83   41  105 1    
    84   42   43 am   BACKBONE|DICT|INTERRES
    85   42  106 1    
    86   43   44 2    
    87   43   45 1    
    88   45   46 1    
    89   45   49 1    
    90   45  107 1    
    91   46   47 1    
    92   46  108 1    
    93   46  109 1    
    94   47   48 1    
    95   48  110 1    
    96   48  111 1    
    97   49   50 am   BACKBONE|DICT|INTERRES
    98   49  112 1    
    99   50   51 2    
   100   50   52 1    
   101   52   53 1    
   102   52   54 1    
   103   52  113 1    
   104   53  114 1    
   105   53  115 1    
   106   53  116 1    
   107   54   55 am   BACKBONE|DICT|INTERRES
   108   54  117 1    
   109   55   56 2    
   110   55   57 1    
   111   57   58 1    
   112   57   59 1    
   113   57  118 1    
   114   58  119 1    
   115   58  120 1    
   116   58  121 1    
   117   59   60 am   BACKBONE|DICT|INTERRES
   118   59  122 1    
   119   60   61 2    
   120   60   62 1    
   121   62   63 1    
   122   62   64 1    
   123   62  123 1    
   124   63  124 1    
   125   63  125 1    
   126   63  126 1    
   127   64   65 am   BACKBONE|DICT|INTERRES
   128   64  127 1    
   129   65   66 2    
@<TRIPOS>SUBSTRUCTURE
     1 UNK         1 GROUP             0       ****    0 ROOT    
