@<TRIPOS>MOLECULE
3R134
127   129    1
SMALL
USER_CHARGES


@<TRIPOS>ATOM
      1 CA         35.5436  -47.5261  -50.2666 C.3       0 UNK        -0.1968 
      2 C          34.5305  -47.4687  -51.3988 C.2       0 UNK         0.4852 
      3 O          34.4715  -48.3946  -52.2080 O.2       0 UNK        -0.5359 
      4 N          33.7227  -46.3996  -51.4508 N.am      1 UNK        -0.4300 
      5 CA         32.7136  -46.1042  -52.4816 C.3       1 UNK         0.0863 
      6 C6         31.9602  -44.7860  -52.1718 C.3       11 UNK        -0.0953 
      7 S7         33.0970  -43.3587  -52.0840 S.3       11 UNK        -0.2369 
      8 C8         32.2589  -42.1177  -53.1322 C.3       11 UNK         0.0226 
      9 C9         31.9893  -42.5445  -54.5761 C.ar      11 UNK        -0.0699 
     10 C10        32.7705  -43.5052  -55.2317 C.ar      11 UNK        -0.0804 
     11 C11        32.4722  -43.9071  -56.5367 C.ar      11 UNK        -0.0871 
     12 C12        31.4103  -43.2925  -57.2102 C.ar      11 UNK        -0.1008 
     13 C13        30.6304  -42.3233  -56.5771 C.ar      11 UNK        -0.0735 
     14 C14        30.9238  -41.9538  -55.2624 C.ar      11 UNK        -0.0945 
     15 C15        29.4524  -41.7041  -57.3090 C.3       11 UNK         0.0169 
     16 S16        27.9225  -42.5885  -56.8921 S.3       11 UNK        -0.2669 
     17 C17        26.9114  -42.2563  -58.3748 C.3       11 UNK        -0.0850 
     18 CA         25.4366  -42.7253  -58.2095 C.3       10 UNK         0.0855 
     19 C          24.5418  -42.3386  -59.4264 C.2       10 UNK         0.5543 
     20 N          23.5272  -43.1213  -59.7730 N.am      10 UNK        -0.7343 
     21 O          24.7464  -41.2983  -60.0477 O.2       10 UNK        -0.5027 
     22 N          25.3285  -44.1302  -57.7742 N.am      10 UNK        -0.4495 
     23 C          25.7165  -45.2170  -58.4511 C.2       10 UNK         0.4903 
     24 O          26.1737  -45.1929  -59.5951 O.2       10 UNK        -0.4860 
     25 CA         25.5862  -46.5543  -57.6954 C.3       9 UNK         0.0227 
     26 CB         25.7144  -47.7726  -58.6285 C.3       9 UNK        -0.1964 
     27 N          26.5818  -46.6762  -56.6287 N.am      9 UNK        -0.4231 
     28 C          26.5934  -45.9971  -55.4737 C.2       9 UNK         0.5014 
     29 O          25.7206  -45.1908  -55.1409 O.2       9 UNK        -0.5270 
     30 CA         27.7683  -46.3145  -54.5302 C.3       8 UNK         0.0284 
     31 CB         27.8623  -45.3619  -53.3202 C.3       8 UNK        -0.1977 
     32 N          27.7418  -47.7164  -54.0993 N.am      8 UNK        -0.4342 
     33 C          26.7679  -48.3602  -53.4336 C.2       8 UNK         0.5039 
     34 O          25.7508  -47.8186  -52.9986 O.2       8 UNK        -0.5547 
     35 CA         26.9812  -49.8699  -53.1921 C.3       7 UNK         0.0281 
     36 CB         25.6560  -50.6534  -53.0680 C.3       7 UNK        -0.1963 
     37 N          27.8857  -50.4882  -54.1721 N.am      7 UNK        -0.4444 
     38 C          27.6668  -50.6601  -55.4817 C.2       7 UNK         0.5104 
     39 O          26.6103  -50.3769  -56.0489 O.2       7 UNK        -0.5100 
     40 CA         28.8613  -51.2026  -56.2915 C.3       6 UNK         0.0396 
     41 CB         28.4234  -51.7396  -57.6698 C.3       6 UNK        -0.1801 
     42 N          29.9561  -50.2336  -56.4701 N.am      6 UNK        -0.4747 
     43 C          29.8685  -48.9699  -56.9209 C.2       6 UNK         0.5012 
     44 O          28.8053  -48.3661  -57.0640 O.2       6 UNK        -0.5003 
     45 CA         31.1877  -48.2787  -57.3161 C.3       5 UNK         0.0782 
     46 C46        31.0637  -46.7371  -57.4431 C.3       11 UNK        -0.0868 
     47 S47        32.4316  -46.0207  -58.4193 S.3       11 UNK        -0.2515 
     48 C48        33.3135  -45.0079  -57.1823 C.3       11 UNK         0.0199 
     49 N          32.2738  -48.6706  -56.4130 N.am      5 UNK        -0.4607 
     50 C          33.4516  -49.1611  -56.8189 C.2       4 UNK         0.5031 
     51 O          33.7209  -49.4240  -57.9913 O.2       4 UNK        -0.5119 
     52 CA         34.5220  -49.3985  -55.7433 C.3       4 UNK         0.0263 
     53 CB         35.2887  -48.0991  -55.4486 C.3       4 UNK        -0.1967 
     54 N          33.9978  -49.9429  -54.4914 N.am      4 UNK        -0.4237 
     55 C          33.4612  -51.1625  -54.3469 C.2       3 UNK         0.4908 
     56 O          33.2739  -51.9496  -55.2748 O.2       3 UNK        -0.5102 
     57 CA         33.0714  -51.5709  -52.9203 C.3       3 UNK         0.0241 
     58 CB         34.3155  -51.9510  -52.0996 C.3       3 UNK        -0.1971 
     59 N          32.3487  -50.4933  -52.2468 N.am      3 UNK        -0.4139 
     60 C          31.0248  -50.3187  -52.3324 C.2       2 UNK         0.5016 
     61 O          30.2731  -51.0768  -52.9446 O.2       2 UNK        -0.5319 
     62 CA         30.4270  -49.0844  -51.6362 C.3       2 UNK         0.0286 
     63 CB         29.9946  -49.4263  -50.2025 C.3       2 UNK        -0.1963 
     64 N          31.3229  -47.9295  -51.6168 N.am      2 UNK        -0.4790 
     65 C          31.7062  -47.2495  -52.7070 C.2       1 UNK         0.5024 
     66 O          31.3271  -47.5171  -53.8491 O.2       1 UNK        -0.4888 
     67 H67        35.3765  -48.4155  -49.6597 H         1 UNK         0.0892 
     68 H68        36.5535  -47.5757  -50.6728 H         1 UNK         0.0892 
     69 H69        35.4809  -46.6534  -49.6167 H         1 UNK         0.0892 
     70 H70        33.8347  -45.6747  -50.7559 H         1 UNK         0.3107 
     71 H71        33.2523  -45.9799  -53.4223 H         1 UNK         0.0773 
     72 H72        31.1971  -44.5949  -52.9288 H         1 UNK         0.0680 
     73 H73        31.4288  -44.8575  -51.2209 H         1 UNK         0.0680 
     74 H74        32.8675  -41.2129  -53.1480 H         1 UNK         0.0650 
     75 H75        31.3196  -41.8504  -52.6453 H         1 UNK         0.0650 
     76 H76        33.6074  -43.9596  -54.7214 H         1 UNK         0.1397 
     77 H77        31.1699  -43.5796  -58.2242 H         1 UNK         0.1363 
     78 H78        30.3098  -41.2120  -54.7696 H         1 UNK         0.1355 
     79 H79        29.3489  -40.6504  -57.0455 H         1 UNK         0.0707 
     80 H80        29.6215  -41.7406  -58.3865 H         1 UNK         0.0707 
     81 H81        27.3738  -42.7464  -59.2335 H         1 UNK         0.1034 
     82 H82        26.9487  -41.1842  -58.5770 H         1 UNK         0.1034 
     83 H83        25.0187  -42.1501  -57.3827 H         1 UNK         0.0482 
     84 H84        23.3456  -43.9716  -59.2642 H         1 UNK         0.3460 
     85 H85        22.9446  -42.8623  -60.5536 H         1 UNK         0.3460 
     86 H86        25.0568  -44.2690  -56.8060 H         1 UNK         0.2989 
     87 H87        24.5928  -46.5851  -57.2432 H         1 UNK         0.0559 
     88 H88        24.9812  -47.7286  -59.4348 H         1 UNK         0.0848 
     89 H89        25.5472  -48.7043  -58.0874 H         1 UNK         0.0848 
     90 H90        26.7032  -47.8285  -59.0860 H         1 UNK         0.0848 
     91 H91        27.3484  -47.3249  -56.8078 H         1 UNK         0.3144 
     92 H92        28.6819  -46.1861  -55.1137 H         1 UNK         0.0727 
     93 H93        28.7276  -45.5951  -52.7000 H         1 UNK         0.0790 
     94 H94        26.9734  -45.4128  -52.6909 H         1 UNK         0.0790 
     95 H95        27.9679  -44.3280  -53.6518 H         1 UNK         0.0790 
     96 H96        28.5033  -48.2808  -54.4490 H         1 UNK         0.3215 
     97 H97        27.4837  -49.9510  -52.2278 H         1 UNK         0.0863 
     98 H98        25.8357  -51.7175  -52.9156 H         1 UNK         0.0808 
     99 H99        25.0308  -50.5403  -53.9540 H         1 UNK         0.0808 
    100 H100       25.0729  -50.2997  -52.2169 H         1 UNK         0.0808 
    101 H101       28.7951  -50.7746  -53.8020 H         1 UNK         0.3118 
    102 H102       29.2738  -52.0404  -55.7266 H         1 UNK         0.0546 
    103 H103       28.0263  -50.9469  -58.3054 H         1 UNK         0.0828 
    104 H104       29.2552  -52.2064  -58.1970 H         1 UNK         0.0828 
    105 H105       27.6424  -52.4939  -57.5652 H         1 UNK         0.0828 
    106 H106       30.8866  -50.6086  -56.3405 H         1 UNK         0.3005 
    107 H107       31.3838  -48.6669  -58.3182 H         1 UNK         0.1257 
    108 H108       31.0081  -46.2756  -56.4556 H         1 UNK         0.0775 
    109 H109       30.1468  -46.4504  -57.9613 H         1 UNK         0.0775 
    110 H110       33.7005  -45.6788  -56.4151 H         1 UNK         0.0840 
    111 H111       34.1800  -44.5495  -57.6602 H         1 UNK         0.0840 
    112 H112       32.1193  -48.4711  -55.4294 H         1 UNK         0.2987 
    113 H113       35.2315  -50.1246  -56.1458 H         1 UNK         0.0785 
    114 H114       36.1386  -48.2832  -54.7912 H         1 UNK         0.0798 
    115 H115       34.6519  -47.3580  -54.9656 H         1 UNK         0.0798 
    116 H116       35.6773  -47.6539  -56.3656 H         1 UNK         0.0798 
    117 H117       34.1355  -49.3711  -53.6578 H         1 UNK         0.3079 
    118 H118       32.4323  -52.4546  -52.9856 H         1 UNK         0.0794 
    119 H119       34.8676  -52.7591  -52.5813 H         1 UNK         0.0786 
    120 H120       34.0399  -52.2966  -51.1032 H         1 UNK         0.0786 
    121 H121       35.0016  -51.1110  -51.9836 H         1 UNK         0.0786 
    122 H122       32.9092  -49.7798  -51.7965 H         1 UNK         0.3032 
    123 H123       29.5412  -48.7911  -52.1980 H         1 UNK         0.1094 
    124 H124       29.4798  -48.5880  -49.7325 H         1 UNK         0.0794 
    125 H125       29.3062  -50.2728  -50.1932 H         1 UNK         0.0794 
    126 H126       30.8465  -49.6929  -49.5756 H         1 UNK         0.0794 
    127 H127       31.6923  -47.6470  -50.7201 H         1 UNK         0.3016 
@<TRIPOS>BOND
     1    1    2 1    
     2    1   67 1    
     3    1   68 1    
     4    1   69 1    
     5    2    3 2    
     6    2    4 am   BACKBONE|DICT|INTERRES
     7    4    5 1    
     8    4   70 1    
     9    5    6 1    
    10    5   65 1    
    11    5   71 1    
    12    6    7 1    
    13    6   72 1    
    14    6   73 1    
    15    7    8 1    
    16    8    9 1    
    17    8   74 1    
    18    8   75 1    
    19    9   10 ar   
    20    9   14 ar   
    21   10   11 ar   
    22   10   76 1    
    23   11   12 ar   
    24   11   48 1    
    25   12   13 ar   
    26   12   77 1    
    27   13   14 ar   
    28   13   15 1    
    29   14   78 1    
    30   15   16 1    
    31   15   79 1    
    32   15   80 1    
    33   16   17 1    
    34   17   18 1    
    35   17   81 1    
    36   17   82 1    
    37   18   19 1    
    38   18   22 1    
    39   18   83 1    
    40   19   20 am   BACKBONE|DICT|INTERRES
    41   19   21 2    
    42   20   84 1    
    43   20   85 1    
    44   22   23 am   BACKBONE|DICT|INTERRES
    45   22   86 1    
    46   23   24 2    
    47   23   25 1    
    48   25   26 1    
    49   25   27 1    
    50   25   87 1    
    51   26   88 1    
    52   26   89 1    
    53   26   90 1    
    54   27   28 am   BACKBONE|DICT|INTERRES
    55   27   91 1    
    56   28   29 2    
    57   28   30 1    
    58   30   31 1    
    59   30   32 1    
    60   30   92 1    
    61   31   93 1    
    62   31   94 1    
    63   31   95 1    
    64   32   33 am   BACKBONE|DICT|INTERRES
    65   32   96 1    
    66   33   34 2    
    67   33   35 1    
    68   35   36 1    
    69   35   37 1    
    70   35   97 1    
    71   36   98 1    
    72   36   99 1    
    73   36  100 1    
    74   37   38 am   BACKBONE|DICT|INTERRES
    75   37  101 1    
    76   38   39 2    
    77   38   40 1    
    78   40   41 1    
    79   40   42 1    
    80   40  102 1    
    81   41  103 1    
    82   41  104 1    
    83   41  105 1    
    84   42   43 am   BACKBONE|DICT|INTERRES
    85   42  106 1    
    86   43   44 2    
    87   43   45 1    
    88   45   46 1    
    89   45   49 1    
    90   45  107 1    
    91   46   47 1    
    92   46  108 1    
    93   46  109 1    
    94   47   48 1    
    95   48  110 1    
    96   48  111 1    
    97   49   50 am   BACKBONE|DICT|INTERRES
    98   49  112 1    
    99   50   51 2    
   100   50   52 1    
   101   52   53 1    
   102   52   54 1    
   103   52  113 1    
   104   53  114 1    
   105   53  115 1    
   106   53  116 1    
   107   54   55 am   BACKBONE|DICT|INTERRES
   108   54  117 1    
   109   55   56 2    
   110   55   57 1    
   111   57   58 1    
   112   57   59 1    
   113   57  118 1    
   114   58  119 1    
   115   58  120 1    
   116   58  121 1    
   117   59   60 am   BACKBONE|DICT|INTERRES
   118   59  122 1    
   119   60   61 2    
   120   60   62 1    
   121   62   63 1    
   122   62   64 1    
   123   62  123 1    
   124   63  124 1    
   125   63  125 1    
   126   63  126 1    
   127   64   65 am   BACKBONE|DICT|INTERRES
   128   64  127 1    
   129   65   66 2    
@<TRIPOS>SUBSTRUCTURE
     1 UNK         1 GROUP             0       ****    0 ROOT    
