@<TRIPOS>MOLECULE
3R134
127   129    1
SMALL
USER_CHARGES


@<TRIPOS>ATOM
      1 CA         32.5912  -49.7858  -57.8327 C.3       0 UNK        -0.1968 
      2 C          33.4290  -48.8054  -57.0275 C.2       0 UNK         0.4852 
      3 O          34.6558  -48.8262  -57.1360 O.2       0 UNK        -0.5359 
      4 N          32.7755  -47.9629  -56.2139 N.am      1 UNK        -0.4300 
      5 CA         33.3377  -46.9033  -55.3623 C.3       1 UNK         0.0863 
      6 C6         34.1535  -45.8207  -56.1211 C.3       11 UNK        -0.0953 
      7 S7         33.1489  -44.8717  -57.3102 S.3       11 UNK        -0.2369 
      8 C8         33.0439  -43.2433  -56.4982 C.3       11 UNK         0.0226 
      9 C9         31.9055  -43.1683  -55.4887 C.ar      11 UNK        -0.0699 
     10 C10        32.0327  -43.7508  -54.2233 C.ar      11 UNK        -0.0804 
     11 C11        30.9933  -43.6817  -53.2902 C.ar      11 UNK        -0.0871 
     12 C12        29.8451  -42.9506  -53.6170 C.ar      11 UNK        -0.1008 
     13 C13        29.6905  -42.3837  -54.8843 C.ar      11 UNK        -0.0735 
     14 C14        30.7230  -42.4996  -55.8183 C.ar      11 UNK        -0.0945 
     15 C15        28.3988  -41.6648  -55.2466 C.3       11 UNK         0.0169 
     16 S16        26.9613  -42.7599  -55.0261 S.3       11 UNK        -0.2669 
     17 C17        25.7098  -41.9720  -56.1007 C.3       11 UNK        -0.0850 
     18 CA         25.5437  -42.6638  -57.4833 C.3       10 UNK         0.0855 
     19 C          26.6195  -42.1948  -58.5022 C.2       10 UNK         0.5543 
     20 N          26.4004  -41.0562  -59.1459 N.am      10 UNK        -0.7343 
     21 O          27.6613  -42.8207  -58.6842 O.2       10 UNK        -0.5027 
     22 N          25.4899  -44.1232  -57.3411 N.am      10 UNK        -0.4495 
     23 C          25.0460  -44.9865  -58.2585 C.2       10 UNK         0.4903 
     24 O          24.5000  -44.6565  -59.3130 O.2       10 UNK        -0.4860 
     25 CA         25.2615  -46.4703  -57.9115 C.3       9 UNK         0.0227 
     26 CB         24.7445  -47.4383  -58.9968 C.3       9 UNK        -0.1964 
     27 N          26.6619  -46.7496  -57.5727 N.am      9 UNK        -0.4231 
     28 C          27.7367  -46.6377  -58.3715 C.2       9 UNK         0.5014 
     29 O          27.7008  -46.2854  -59.5510 O.2       9 UNK        -0.5270 
     30 CA         29.0879  -47.0280  -57.7461 C.3       8 UNK         0.0284 
     31 CB         29.6729  -45.8467  -56.9524 C.3       8 UNK        -0.1977 
     32 N          28.9700  -48.2129  -56.8879 N.am      8 UNK        -0.4342 
     33 C          28.6991  -49.4482  -57.3416 C.2       8 UNK         0.5039 
     34 O          28.6637  -49.7460  -58.5355 O.2       8 UNK        -0.5547 
     35 CA         28.4080  -50.5367  -56.2949 C.3       7 UNK         0.0281 
     36 CB         29.6925  -51.2911  -55.9126 C.3       7 UNK        -0.1963 
     37 N          27.7737  -49.9878  -55.0948 N.am      7 UNK        -0.4444 
     38 C          26.4806  -49.6376  -55.0184 C.2       7 UNK         0.5104 
     39 O          25.6662  -49.8184  -55.9229 O.2       7 UNK        -0.5100 
     40 CA         26.0216  -48.9412  -53.7234 C.3       6 UNK         0.0396 
     41 CB         25.4827  -49.9745  -52.7218 C.3       6 UNK        -0.1801 
     42 N          27.0782  -48.1504  -53.0842 N.am      6 UNK        -0.4747 
     43 C          27.6535  -47.0623  -53.6203 C.2       6 UNK         0.5012 
     44 O          27.3056  -46.5803  -54.6979 O.2       6 UNK        -0.5003 
     45 CA         28.8617  -46.4683  -52.8596 C.3       5 UNK         0.0782 
     46 C46        28.3816  -45.4041  -51.8424 C.3       11 UNK        -0.0868 
     47 S47        29.6754  -44.5231  -50.8847 S.3       11 UNK        -0.2515 
     48 C48        31.1564  -44.4291  -51.9632 C.3       11 UNK         0.0199 
     49 N          29.6504  -47.5264  -52.2146 N.am      5 UNK        -0.4607 
     50 C          30.3323  -48.4689  -52.8750 C.2       4 UNK         0.5031 
     51 O          30.4767  -48.4794  -54.1020 O.2       4 UNK        -0.5119 
     52 CA         30.8336  -49.6477  -52.0342 C.3       4 UNK         0.0263 
     53 CB         29.6598  -50.6135  -51.7546 C.3       4 UNK        -0.1967 
     54 N          31.9062  -50.3204  -52.7614 N.am      4 UNK        -0.4237 
     55 C          32.6358  -51.3599  -52.3335 C.2       3 UNK         0.4908 
     56 O          32.4847  -51.9157  -51.2452 O.2       3 UNK        -0.5102 
     57 CA         33.7506  -51.8430  -53.2753 C.3       3 UNK         0.0241 
     58 CB         33.1688  -52.5601  -54.5056 C.3       3 UNK        -0.1971 
     59 N          34.6051  -50.7361  -53.7039 N.am      3 UNK        -0.4139 
     60 C          35.4532  -50.0732  -52.9034 C.2       2 UNK         0.5016 
     61 O          35.7072  -50.3988  -51.7433 O.2       2 UNK        -0.5319 
     62 CA         36.1139  -48.8184  -53.4957 C.3       2 UNK         0.0286 
     63 CB         37.4557  -49.1700  -54.1576 C.3       2 UNK        -0.1963 
     64 N          35.2528  -48.1468  -54.4718 N.am      2 UNK        -0.4790 
     65 C          34.1387  -47.4659  -54.1749 C.2       1 UNK         0.5024 
     66 O          33.7324  -47.2830  -53.0276 O.2       1 UNK        -0.4888 
     67 H67        32.9476  -49.8246  -58.8618 H         1 UNK         0.0892 
     68 H68        32.6655  -50.7868  -57.4097 H         1 UNK         0.0892 
     69 H69        31.5428  -49.4957  -57.8573 H         1 UNK         0.0892 
     70 H70        31.7724  -48.0572  -56.1291 H         1 UNK         0.3107 
     71 H71        32.4681  -46.4143  -54.9226 H         1 UNK         0.0773 
     72 H72        34.6187  -45.1277  -55.4184 H         1 UNK         0.0680 
     73 H73        34.9822  -46.2685  -56.6707 H         1 UNK         0.0680 
     74 H74        32.9020  -42.4890  -57.2736 H         1 UNK         0.0650 
     75 H75        33.9905  -42.9954  -56.0164 H         1 UNK         0.0650 
     76 H76        32.9419  -44.2746  -53.9652 H         1 UNK         0.1397 
     77 H77        29.0401  -42.8400  -52.9067 H         1 UNK         0.1363 
     78 H78        30.6088  -42.0638  -56.8016 H         1 UNK         0.1355 
     79 H79        28.4361  -41.3155  -56.2792 H         1 UNK         0.0707 
     80 H80        28.2823  -40.7806  -54.6187 H         1 UNK         0.0707 
     81 H81        24.7589  -42.0223  -55.5683 H         1 UNK         0.1034 
     82 H82        25.9190  -40.9056  -56.2069 H         1 UNK         0.1034 
     83 H83        24.5765  -42.3532  -57.8841 H         1 UNK         0.0482 
     84 H84        25.5540  -40.5274  -59.0027 H         1 UNK         0.3460 
     85 H85        27.0915  -40.7253  -59.8009 H         1 UNK         0.3460 
     86 H86        25.9652  -44.4847  -56.5256 H         1 UNK         0.2989 
     87 H87        24.6870  -46.6629  -57.0041 H         1 UNK         0.0559 
     88 H88        23.6758  -47.2999  -59.1638 H         1 UNK         0.0848 
     89 H89        24.8956  -48.4771  -58.7024 H         1 UNK         0.0848 
     90 H90        25.2442  -47.2844  -59.9536 H         1 UNK         0.0848 
     91 H91        26.8379  -46.9687  -56.5965 H         1 UNK         0.3144 
     92 H92        29.7817  -47.2697  -58.5544 H         1 UNK         0.0727 
     93 H93        28.9653  -45.4289  -56.2372 H         1 UNK         0.0790 
     94 H94        29.9478  -45.0340  -57.6261 H         1 UNK         0.0790 
     95 H95        30.5691  -46.1286  -56.4044 H         1 UNK         0.0790 
     96 H96        29.0035  -48.0631  -55.8886 H         1 UNK         0.3215 
     97 H97        27.7213  -51.2549  -56.7492 H         1 UNK         0.0863 
     98 H98        30.4492  -50.6280  -55.4971 H         1 UNK         0.0808 
     99 H99        30.1313  -51.7730  -56.7872 H         1 UNK         0.0808 
    100 H100       29.4926  -52.0738  -55.1807 H         1 UNK         0.0808 
    101 H101       28.3767  -49.7825  -54.3128 H         1 UNK         0.3118 
    102 H102       25.2077  -48.2617  -53.9855 H         1 UNK         0.0546 
    103 H103       26.2560  -50.6755  -52.4051 H         1 UNK         0.0828 
    104 H104       24.6748  -50.5599  -53.1634 H         1 UNK         0.0828 
    105 H105       25.0795  -49.4924  -51.8312 H         1 UNK         0.0828 
    106 H106       27.4059  -48.4719  -52.1854 H         1 UNK         0.3005 
    107 H107       29.4877  -45.9855  -53.6124 H         1 UNK         0.1257 
    108 H108       27.7807  -44.6494  -52.3531 H         1 UNK         0.0775 
    109 H109       27.7075  -45.8613  -51.1154 H         1 UNK         0.0775 
    110 H110       31.9477  -43.9381  -51.3953 H         1 UNK         0.0840 
    111 H111       31.5148  -45.4408  -52.1587 H         1 UNK         0.0840 
    112 H112       29.5938  -47.5711  -51.2070 H         1 UNK         0.2987 
    113 H113       31.2374  -49.2644  -51.0951 H         1 UNK         0.0785 
    114 H114       28.8176  -50.0979  -51.2923 H         1 UNK         0.0798 
    115 H115       29.9453  -51.4085  -51.0666 H         1 UNK         0.0798 
    116 H116       29.2972  -51.0846  -52.6686 H         1 UNK         0.0798 
    117 H117       32.1029  -49.9054  -53.6620 H         1 UNK         0.3079 
    118 H118       34.3674  -52.5579  -52.7260 H         1 UNK         0.0794 
    119 H119       33.9591  -52.9832  -55.1262 H         1 UNK         0.0786 
    120 H120       32.5776  -51.8904  -55.1294 H         1 UNK         0.0786 
    121 H121       32.5193  -53.3835  -54.2052 H         1 UNK         0.0786 
    122 H122       34.4945  -50.4029  -54.6499 H         1 UNK         0.3032 
    123 H123       36.3046  -48.1268  -52.6716 H         1 UNK         0.1094 
    124 H124       38.1241  -49.6600  -53.4481 H         1 UNK         0.0794 
    125 H125       37.3251  -49.8456  -55.0040 H         1 UNK         0.0794 
    126 H126       37.9659  -48.2763  -54.5174 H         1 UNK         0.0794 
    127 H127       35.4520  -48.2978  -55.4582 H         1 UNK         0.3016 
@<TRIPOS>BOND
     1    1    2 1    
     2    1   67 1    
     3    1   68 1    
     4    1   69 1    
     5    2    3 2    
     6    2    4 am   BACKBONE|DICT|INTERRES
     7    4    5 1    
     8    4   70 1    
     9    5    6 1    
    10    5   65 1    
    11    5   71 1    
    12    6    7 1    
    13    6   72 1    
    14    6   73 1    
    15    7    8 1    
    16    8    9 1    
    17    8   74 1    
    18    8   75 1    
    19    9   10 ar   
    20    9   14 ar   
    21   10   11 ar   
    22   10   76 1    
    23   11   12 ar   
    24   11   48 1    
    25   12   13 ar   
    26   12   77 1    
    27   13   14 ar   
    28   13   15 1    
    29   14   78 1    
    30   15   16 1    
    31   15   79 1    
    32   15   80 1    
    33   16   17 1    
    34   17   18 1    
    35   17   81 1    
    36   17   82 1    
    37   18   19 1    
    38   18   22 1    
    39   18   83 1    
    40   19   20 am   BACKBONE|DICT|INTERRES
    41   19   21 2    
    42   20   84 1    
    43   20   85 1    
    44   22   23 am   BACKBONE|DICT|INTERRES
    45   22   86 1    
    46   23   24 2    
    47   23   25 1    
    48   25   26 1    
    49   25   27 1    
    50   25   87 1    
    51   26   88 1    
    52   26   89 1    
    53   26   90 1    
    54   27   28 am   BACKBONE|DICT|INTERRES
    55   27   91 1    
    56   28   29 2    
    57   28   30 1    
    58   30   31 1    
    59   30   32 1    
    60   30   92 1    
    61   31   93 1    
    62   31   94 1    
    63   31   95 1    
    64   32   33 am   BACKBONE|DICT|INTERRES
    65   32   96 1    
    66   33   34 2    
    67   33   35 1    
    68   35   36 1    
    69   35   37 1    
    70   35   97 1    
    71   36   98 1    
    72   36   99 1    
    73   36  100 1    
    74   37   38 am   BACKBONE|DICT|INTERRES
    75   37  101 1    
    76   38   39 2    
    77   38   40 1    
    78   40   41 1    
    79   40   42 1    
    80   40  102 1    
    81   41  103 1    
    82   41  104 1    
    83   41  105 1    
    84   42   43 am   BACKBONE|DICT|INTERRES
    85   42  106 1    
    86   43   44 2    
    87   43   45 1    
    88   45   46 1    
    89   45   49 1    
    90   45  107 1    
    91   46   47 1    
    92   46  108 1    
    93   46  109 1    
    94   47   48 1    
    95   48  110 1    
    96   48  111 1    
    97   49   50 am   BACKBONE|DICT|INTERRES
    98   49  112 1    
    99   50   51 2    
   100   50   52 1    
   101   52   53 1    
   102   52   54 1    
   103   52  113 1    
   104   53  114 1    
   105   53  115 1    
   106   53  116 1    
   107   54   55 am   BACKBONE|DICT|INTERRES
   108   54  117 1    
   109   55   56 2    
   110   55   57 1    
   111   57   58 1    
   112   57   59 1    
   113   57  118 1    
   114   58  119 1    
   115   58  120 1    
   116   58  121 1    
   117   59   60 am   BACKBONE|DICT|INTERRES
   118   59  122 1    
   119   60   61 2    
   120   60   62 1    
   121   62   63 1    
   122   62   64 1    
   123   62  123 1    
   124   63  124 1    
   125   63  125 1    
   126   63  126 1    
   127   64   65 am   BACKBONE|DICT|INTERRES
   128   64  127 1    
   129   65   66 2    
@<TRIPOS>SUBSTRUCTURE
     1 UNK         1 GROUP             0       ****    0 ROOT    
