@<TRIPOS>MOLECULE
3R134
127   129    1
SMALL
USER_CHARGES


@<TRIPOS>ATOM
      1 CA         32.3536  -45.1127  -58.2120 C.3       0 UNK        -0.1968 
      2 C          32.9068  -45.5873  -56.8779 C.2       0 UNK         0.4852 
      3 O          32.6083  -46.7024  -56.4529 O.2       0 UNK        -0.5359 
      4 N          33.7360  -44.7549  -56.2332 N.am      1 UNK        -0.4300 
      5 CA         34.3283  -44.9610  -54.9020 C.3       1 UNK         0.0863 
      6 C6         35.0679  -43.6768  -54.4440 C.3       11 UNK        -0.0953 
      7 S7         35.0973  -43.4683  -52.6325 S.3       11 UNK        -0.2369 
      8 C8         33.8647  -42.1537  -52.3828 C.3       11 UNK         0.0226 
      9 C9         32.4409  -42.6922  -52.3605 C.ar      11 UNK        -0.0699 
     10 C10        31.9104  -43.1958  -51.1697 C.ar      11 UNK        -0.0804 
     11 C11        30.5791  -43.6170  -51.1038 C.ar      11 UNK        -0.0871 
     12 C12        29.7781  -43.5450  -52.2478 C.ar      11 UNK        -0.1008 
     13 C13        30.3006  -43.0554  -53.4493 C.ar      11 UNK        -0.0735 
     14 C14        31.6347  -42.6354  -53.5020 C.ar      11 UNK        -0.0945 
     15 C15        29.4042  -42.9112  -54.6697 C.3       11 UNK         0.0169 
     16 S16        29.4696  -44.3655  -55.7622 S.3       11 UNK        -0.2669 
     17 C17        28.4392  -43.7594  -57.1448 C.3       11 UNK        -0.0850 
     18 CA         27.3458  -44.7738  -57.5996 C.3       10 UNK         0.0855 
     19 C          26.2264  -44.0992  -58.4554 C.2       10 UNK         0.5543 
     20 N          25.6919  -44.7321  -59.4936 N.am      10 UNK        -0.7343 
     21 O          25.8026  -42.9863  -58.1528 O.2       10 UNK        -0.5027 
     22 N          27.8919  -46.0122  -58.1850 N.am      10 UNK        -0.4495 
     23 C          28.6402  -46.1026  -59.2968 C.2       10 UNK         0.4903 
     24 O          29.0786  -45.1344  -59.9175 O.2       10 UNK        -0.4860 
     25 CA         28.9169  -47.5157  -59.8475 C.3       9 UNK         0.0227 
     26 CB         30.2313  -48.0661  -59.2724 C.3       9 UNK        -0.1964 
     27 N          27.8387  -48.4709  -59.5811 N.am      9 UNK        -0.4231 
     28 C          26.5598  -48.3378  -59.9639 C.2       9 UNK         0.5014 
     29 O          26.1537  -47.4277  -60.6875 O.2       9 UNK        -0.5270 
     30 CA         25.5495  -49.3621  -59.4119 C.3       8 UNK         0.0284 
     31 CB         25.1939  -50.3986  -60.4904 C.3       8 UNK        -0.1977 
     32 N          25.9849  -50.0611  -58.1949 N.am      8 UNK        -0.4342 
     33 C          26.3052  -49.4799  -57.0299 C.2       8 UNK         0.5039 
     34 O          26.3172  -48.2588  -56.8495 O.2       8 UNK        -0.5547 
     35 CA         26.7639  -50.4330  -55.9153 C.3       7 UNK         0.0281 
     36 CB         28.2414  -50.8114  -56.1172 C.3       7 UNK        -0.1963 
     37 N          26.5845  -49.8436  -54.5860 N.am      7 UNK        -0.4444 
     38 C          25.3914  -49.7047  -53.9871 C.2       7 UNK         0.5104 
     39 O          24.3355  -50.0883  -54.4942 O.2       7 UNK        -0.5100 
     40 CA         25.3411  -49.0768  -52.5798 C.3       6 UNK         0.0396 
     41 CB         24.8025  -50.0924  -51.5570 C.3       6 UNK        -0.1801 
     42 N          26.6375  -48.5898  -52.1075 N.am      6 UNK        -0.4747 
     43 C          27.1332  -47.3641  -52.3279 C.2       6 UNK         0.5012 
     44 O          26.5319  -46.4807  -52.9390 O.2       6 UNK        -0.5003 
     45 CA         28.5404  -47.0751  -51.7582 C.3       5 UNK         0.0782 
     46 C46        28.4075  -46.3582  -50.3924 C.3       11 UNK        -0.0868 
     47 S47        30.0143  -45.9121  -49.6491 S.3       11 UNK        -0.2515 
     48 C48        30.0031  -44.0973  -49.7797 C.3       11 UNK         0.0199 
     49 N          29.3958  -48.2691  -51.6655 N.am      5 UNK        -0.4607 
     50 C          29.7565  -49.0360  -52.7004 C.2       4 UNK         0.5031 
     51 O          29.3222  -48.8839  -53.8424 O.2       4 UNK        -0.5119 
     52 CA         30.7099  -50.2047  -52.3979 C.3       4 UNK         0.0263 
     53 CB         29.9076  -51.4566  -52.0057 C.3       4 UNK        -0.1967 
     54 N          31.5504  -50.5167  -53.5568 N.am      4 UNK        -0.4237 
     55 C          32.4956  -49.6991  -54.0394 C.2       3 UNK         0.4908 
     56 O          32.8570  -48.6688  -53.4653 O.2       3 UNK        -0.5102 
     57 CA         33.1226  -50.1065  -55.3846 C.3       3 UNK         0.0241 
     58 CB         32.0544  -50.1729  -56.4922 C.3       3 UNK        -0.1971 
     59 N          34.1331  -49.1264  -55.7800 N.am      3 UNK        -0.4139 
     60 C          35.4576  -49.2820  -55.6517 C.2       2 UNK         0.5016 
     61 O          35.9914  -50.3279  -55.2780 O.2       2 UNK        -0.5319 
     62 CA         36.3520  -48.0740  -56.0003 C.3       2 UNK         0.0286 
     63 CB         36.9476  -48.2339  -57.4086 C.3       2 UNK        -0.1963 
     64 N          35.6506  -46.7894  -55.9225 N.am      2 UNK        -0.4790 
     65 C          35.2341  -46.2141  -54.7841 C.2       1 UNK         0.5024 
     66 O          35.5361  -46.6449  -53.6706 O.2       1 UNK        -0.4888 
     67 H67        32.6195  -44.0769  -58.4212 H         1 UNK         0.0892 
     68 H68        32.7361  -45.7331  -59.0215 H         1 UNK         0.0892 
     69 H69        31.2673  -45.1838  -58.2060 H         1 UNK         0.0892 
     70 H70        33.9579  -43.8696  -56.6656 H         1 UNK         0.3107 
     71 H71        33.4835  -45.1313  -54.2302 H         1 UNK         0.0773 
     72 H72        36.0943  -43.6590  -54.8159 H         1 UNK         0.0680 
     73 H73        34.5951  -42.7923  -54.8730 H         1 UNK         0.0680 
     74 H74        33.9759  -41.3808  -53.1447 H         1 UNK         0.0650 
     75 H75        34.0773  -41.6625  -51.4321 H         1 UNK         0.0650 
     76 H76        32.5313  -43.2356  -50.2849 H         1 UNK         0.1397 
     77 H77        28.7420  -43.8508  -52.1997 H         1 UNK         0.1363 
     78 H78        32.0356  -42.2383  -54.4245 H         1 UNK         0.1355 
     79 H79        28.3718  -42.7452  -54.3569 H         1 UNK         0.0707 
     80 H80        29.6991  -42.0248  -55.2340 H         1 UNK         0.0707 
     81 H81        27.9716  -42.8255  -56.8289 H         1 UNK         0.1034 
     82 H82        29.0909  -43.4818  -57.9734 H         1 UNK         0.1034 
     83 H83        26.8231  -45.1020  -56.7003 H         1 UNK         0.0482 
     84 H84        26.0097  -45.6530  -59.7745 H         1 UNK         0.3460 
     85 H85        24.9626  -44.2771  -60.0188 H         1 UNK         0.3460 
     86 H86        27.5418  -46.8665  -57.7620 H         1 UNK         0.2989 
     87 H87        29.0206  -47.4372  -60.9316 H         1 UNK         0.0559 
     88 H88        31.0729  -47.4364  -59.5602 H         1 UNK         0.0848 
     89 H89        30.2091  -48.0997  -58.1825 H         1 UNK         0.0848 
     90 H90        30.4442  -49.0703  -59.6392 H         1 UNK         0.0848 
     91 H91        28.0658  -49.2537  -58.9869 H         1 UNK         0.3144 
     92 H92        24.6434  -48.8077  -59.1585 H         1 UNK         0.0727 
     93 H93        24.4010  -51.0672  -60.1545 H         1 UNK         0.0790 
     94 H94        26.0559  -51.0079  -60.7653 H         1 UNK         0.0790 
     95 H95        24.8377  -49.9105  -61.3989 H         1 UNK         0.0790 
     96 H96        26.0220  -51.0693  -58.2528 H         1 UNK         0.3215 
     97 H97        26.1638  -51.3445  -55.9650 H         1 UNK         0.0863 
     98 H98        28.6114  -51.4279  -55.2982 H         1 UNK         0.0808 
     99 H99        28.8772  -49.9277  -56.1855 H         1 UNK         0.0808 
    100 H100       28.3806  -51.3807  -57.0368 H         1 UNK         0.0808 
    101 H101       27.4101  -49.4366  -54.1577 H         1 UNK         0.3118 
    102 H102       24.6389  -48.2417  -52.6249 H         1 UNK         0.0546 
    103 H103       23.8097  -50.4455  -51.8394 H         1 UNK         0.0828 
    104 H104       24.7136  -49.6486  -50.5653 H         1 UNK         0.0828 
    105 H105       25.4483  -50.9679  -51.4777 H         1 UNK         0.0828 
    106 H106       27.2104  -49.2472  -51.5980 H         1 UNK         0.3005 
    107 H107       29.0254  -46.3942  -52.4618 H         1 UNK         0.1257 
    108 H108       27.8849  -46.9986  -49.6789 H         1 UNK         0.0775 
    109 H109       27.7910  -45.4629  -50.4908 H         1 UNK         0.0775 
    110 H110       28.9947  -43.7058  -49.6385 H         1 UNK         0.0840 
    111 H111       30.5902  -43.6934  -48.9533 H         1 UNK         0.0840 
    112 H112       29.7920  -48.4525  -50.7546 H         1 UNK         0.2987 
    113 H113       31.3610  -49.9247  -51.5668 H         1 UNK         0.0785 
    114 H114       29.3020  -51.2718  -51.1175 H         1 UNK         0.0798 
    115 H115       30.5662  -52.2945  -51.7761 H         1 UNK         0.0798 
    116 H116       29.2304  -51.7696  -52.8017 H         1 UNK         0.0798 
    117 H117       31.2936  -51.3320  -54.0928 H         1 UNK         0.3079 
    118 H118       33.5740  -51.0939  -55.2688 H         1 UNK         0.0794 
    119 H119       31.3473  -50.9841  -56.3177 H         1 UNK         0.0786 
    120 H120       32.5040  -50.3449  -57.4703 H         1 UNK         0.0786 
    121 H121       31.4819  -49.2462  -56.5456 H         1 UNK         0.0786 
    122 H122       33.7672  -48.2069  -56.0167 H         1 UNK         0.3032 
    123 H123       37.1723  -48.0600  -55.2789 H         1 UNK         0.1094 
    124 H124       37.6408  -47.4253  -57.6415 H         1 UNK         0.0794 
    125 H125       37.5036  -49.1688  -57.4926 H         1 UNK         0.0794 
    126 H126       36.1726  -48.2461  -58.1762 H         1 UNK         0.0794 
    127 H127       35.3633  -46.3716  -56.7956 H         1 UNK         0.3016 
@<TRIPOS>BOND
     1    1    2 1    
     2    1   67 1    
     3    1   68 1    
     4    1   69 1    
     5    2    3 2    
     6    2    4 am   BACKBONE|DICT|INTERRES
     7    4    5 1    
     8    4   70 1    
     9    5    6 1    
    10    5   65 1    
    11    5   71 1    
    12    6    7 1    
    13    6   72 1    
    14    6   73 1    
    15    7    8 1    
    16    8    9 1    
    17    8   74 1    
    18    8   75 1    
    19    9   10 ar   
    20    9   14 ar   
    21   10   11 ar   
    22   10   76 1    
    23   11   12 ar   
    24   11   48 1    
    25   12   13 ar   
    26   12   77 1    
    27   13   14 ar   
    28   13   15 1    
    29   14   78 1    
    30   15   16 1    
    31   15   79 1    
    32   15   80 1    
    33   16   17 1    
    34   17   18 1    
    35   17   81 1    
    36   17   82 1    
    37   18   19 1    
    38   18   22 1    
    39   18   83 1    
    40   19   20 am   BACKBONE|DICT|INTERRES
    41   19   21 2    
    42   20   84 1    
    43   20   85 1    
    44   22   23 am   BACKBONE|DICT|INTERRES
    45   22   86 1    
    46   23   24 2    
    47   23   25 1    
    48   25   26 1    
    49   25   27 1    
    50   25   87 1    
    51   26   88 1    
    52   26   89 1    
    53   26   90 1    
    54   27   28 am   BACKBONE|DICT|INTERRES
    55   27   91 1    
    56   28   29 2    
    57   28   30 1    
    58   30   31 1    
    59   30   32 1    
    60   30   92 1    
    61   31   93 1    
    62   31   94 1    
    63   31   95 1    
    64   32   33 am   BACKBONE|DICT|INTERRES
    65   32   96 1    
    66   33   34 2    
    67   33   35 1    
    68   35   36 1    
    69   35   37 1    
    70   35   97 1    
    71   36   98 1    
    72   36   99 1    
    73   36  100 1    
    74   37   38 am   BACKBONE|DICT|INTERRES
    75   37  101 1    
    76   38   39 2    
    77   38   40 1    
    78   40   41 1    
    79   40   42 1    
    80   40  102 1    
    81   41  103 1    
    82   41  104 1    
    83   41  105 1    
    84   42   43 am   BACKBONE|DICT|INTERRES
    85   42  106 1    
    86   43   44 2    
    87   43   45 1    
    88   45   46 1    
    89   45   49 1    
    90   45  107 1    
    91   46   47 1    
    92   46  108 1    
    93   46  109 1    
    94   47   48 1    
    95   48  110 1    
    96   48  111 1    
    97   49   50 am   BACKBONE|DICT|INTERRES
    98   49  112 1    
    99   50   51 2    
   100   50   52 1    
   101   52   53 1    
   102   52   54 1    
   103   52  113 1    
   104   53  114 1    
   105   53  115 1    
   106   53  116 1    
   107   54   55 am   BACKBONE|DICT|INTERRES
   108   54  117 1    
   109   55   56 2    
   110   55   57 1    
   111   57   58 1    
   112   57   59 1    
   113   57  118 1    
   114   58  119 1    
   115   58  120 1    
   116   58  121 1    
   117   59   60 am   BACKBONE|DICT|INTERRES
   118   59  122 1    
   119   60   61 2    
   120   60   62 1    
   121   62   63 1    
   122   62   64 1    
   123   62  123 1    
   124   63  124 1    
   125   63  125 1    
   126   63  126 1    
   127   64   65 am   BACKBONE|DICT|INTERRES
   128   64  127 1    
   129   65   66 2    
@<TRIPOS>SUBSTRUCTURE
     1 UNK         1 GROUP             0       ****    0 ROOT    
