@<TRIPOS>MOLECULE
3R134
127   129    1
SMALL
USER_CHARGES


@<TRIPOS>ATOM
      1 CA         30.4646  -45.8337  -49.8338 C.3       0 UNK        -0.1968 
      2 C          31.5678  -45.6763  -50.8693 C.2       0 UNK         0.4852 
      3 O          31.3334  -45.9297  -52.0493 O.2       0 UNK        -0.5359 
      4 N          32.7653  -45.2660  -50.4278 N.am      1 UNK        -0.4300 
      5 CA         33.9869  -45.0090  -51.2092 C.3       1 UNK         0.0863 
      6 C6         33.8198  -43.9755  -52.3540 C.3       11 UNK        -0.0953 
      7 S7         33.2152  -42.3560  -51.7679 S.3       11 UNK        -0.2369 
      8 C8         33.3327  -41.3559  -53.2868 C.3       11 UNK         0.0226 
      9 C9         32.4089  -41.8787  -54.3769 C.ar      11 UNK        -0.0699 
     10 C10        32.9067  -42.7352  -55.3631 C.ar      11 UNK        -0.0804 
     11 C11        32.0506  -43.2763  -56.3232 C.ar      11 UNK        -0.0871 
     12 C12        30.7017  -42.9154  -56.3219 C.ar      11 UNK        -0.1008 
     13 C13        30.1838  -42.0636  -55.3428 C.ar      11 UNK        -0.0735 
     14 C14        31.0503  -41.5429  -54.3743 C.ar      11 UNK        -0.0945 
     15 C15        28.6868  -41.7645  -55.2705 C.3       11 UNK         0.0169 
     16 S16        27.9744  -41.1326  -56.8322 S.3       11 UNK        -0.2669 
     17 C17        27.5180  -42.5753  -57.8775 C.3       11 UNK        -0.0850 
     18 CA         27.2831  -43.9567  -57.1921 C.3       10 UNK         0.0855 
     19 C          26.0061  -44.0428  -56.3206 C.2       10 UNK         0.5543 
     20 N          25.9294  -45.0350  -55.4450 N.am      10 UNK        -0.7343 
     21 O          25.0806  -43.2449  -56.4476 O.2       10 UNK        -0.5027 
     22 N          27.2706  -45.0673  -58.1490 N.am      10 UNK        -0.4495 
     23 C          28.3314  -45.5674  -58.7868 C.2       10 UNK         0.4903 
     24 O          29.4518  -45.0653  -58.7338 O.2       10 UNK        -0.4860 
     25 CA         28.1164  -46.8529  -59.6083 C.3       9 UNK         0.0227 
     26 CB         29.4357  -47.4285  -60.1601 C.3       9 UNK        -0.1964 
     27 N          27.4205  -47.9048  -58.8582 N.am      9 UNK        -0.4231 
     28 C          26.0936  -47.9577  -58.6824 C.2       9 UNK         0.5014 
     29 O          25.3336  -47.0430  -59.0052 O.2       9 UNK        -0.5270 
     30 CA         25.4941  -49.2371  -58.0921 C.3       8 UNK         0.0284 
     31 CB         25.2999  -50.2890  -59.2031 C.3       8 UNK        -0.1977 
     32 N          26.2646  -49.8026  -56.9801 N.am      8 UNK        -0.4342 
     33 C          25.7220  -50.6297  -56.0748 C.2       8 UNK         0.5039 
     34 O          24.5290  -50.9401  -56.0574 O.2       8 UNK        -0.5547 
     35 CA         26.6533  -51.2439  -55.0211 C.3       7 UNK         0.0281 
     36 CB         27.4270  -52.4286  -55.6220 C.3       7 UNK        -0.1963 
     37 N          27.5806  -50.2847  -54.4195 N.am      7 UNK        -0.4444 
     38 C          27.2117  -49.2750  -53.6174 C.2       7 UNK         0.5104 
     39 O          26.0431  -49.0239  -53.3206 O.2       7 UNK        -0.5100 
     40 CA         28.3349  -48.4040  -53.0302 C.3       6 UNK         0.0396 
     41 CB         28.9509  -49.0795  -51.7955 C.3       6 UNK        -0.1801 
     42 N          29.3920  -48.1100  -53.9952 N.am      6 UNK        -0.4747 
     43 C          29.2412  -47.3469  -55.0863 C.2       6 UNK         0.5012 
     44 O          28.1912  -46.7787  -55.3882 O.2       6 UNK        -0.5003 
     45 CA         30.4614  -47.2418  -56.0203 C.3       5 UNK         0.0782 
     46 C46        31.5050  -46.2557  -55.4450 C.3       11 UNK        -0.0868 
     47 S47        32.9170  -45.9289  -56.5630 S.3       11 UNK        -0.2515 
     48 C48        32.5582  -44.3044  -57.3239 C.3       11 UNK         0.0199 
     49 N          31.0303  -48.5621  -56.2976 N.am      5 UNK        -0.4607 
     50 C          30.3948  -49.5715  -56.9086 C.2       4 UNK         0.5031 
     51 O          29.2460  -49.5039  -57.3544 O.2       4 UNK        -0.5119 
     52 CA         31.1738  -50.8924  -57.0134 C.3       4 UNK         0.0263 
     53 CB         32.1055  -50.8697  -58.2353 C.3       4 UNK        -0.1967 
     54 N          31.9486  -51.1947  -55.8038 N.am      4 UNK        -0.4237 
     55 C          31.4000  -51.4705  -54.6113 C.2       3 UNK         0.4908 
     56 O          30.1883  -51.5011  -54.4065 O.2       3 UNK        -0.5102 
     57 CA         32.3619  -51.7135  -53.4368 C.3       3 UNK         0.0241 
     58 CB         33.0207  -53.0987  -53.5442 C.3       3 UNK        -0.1971 
     59 N          33.3926  -50.6800  -53.2898 N.am      3 UNK        -0.4139 
     60 C          33.1447  -49.3748  -53.1147 C.2       2 UNK         0.5016 
     61 O          32.0142  -48.8842  -53.1272 O.2       2 UNK        -0.5319 
     62 CA         34.3619  -48.4659  -52.9130 C.3       2 UNK         0.0286 
     63 CB         35.1243  -48.2602  -54.2356 C.3       2 UNK        -0.1963 
     64 N          33.9129  -47.1795  -52.3823 N.am      2 UNK        -0.4790 
     65 C          34.6676  -46.2969  -51.7206 C.2       1 UNK         0.5024 
     66 O          35.8660  -46.4706  -51.4931 O.2       1 UNK        -0.4888 
     67 H67        30.3382  -46.8842  -49.5752 H         1 UNK         0.0892 
     68 H68        30.6846  -45.2800  -48.9212 H         1 UNK         0.0892 
     69 H69        29.5200  -45.4637  -50.2319 H         1 UNK         0.0892 
     70 H70        32.8735  -45.1058  -49.4360 H         1 UNK         0.3107 
     71 H71        34.6856  -44.5727  -50.4932 H         1 UNK         0.0773 
     72 H72        33.1330  -44.3553  -53.1118 H         1 UNK         0.0680 
     73 H73        34.7737  -43.8130  -52.8595 H         1 UNK         0.0680 
     74 H74        34.3676  -41.3419  -53.6324 H         1 UNK         0.0650 
     75 H75        33.0747  -40.3225  -53.0509 H         1 UNK         0.0650 
     76 H76        33.9493  -43.0226  -55.3542 H         1 UNK         0.1397 
     77 H77        30.0506  -43.3341  -57.0694 H         1 UNK         0.1363 
     78 H78        30.6653  -40.8995  -53.5949 H         1 UNK         0.1355 
     79 H79        28.5118  -40.9943  -54.5179 H         1 UNK         0.0707 
     80 H80        28.1490  -42.6384  -54.9071 H         1 UNK         0.0707 
     81 H81        26.6364  -42.3007  -58.4593 H         1 UNK         0.1034 
     82 H82        28.3156  -42.6662  -58.6152 H         1 UNK         0.1034 
     83 H83        28.1154  -44.1616  -56.5211 H         1 UNK         0.0482 
     84 H84        25.1094  -45.1311  -54.8683 H         1 UNK         0.3460 
     85 H85        26.6942  -45.7028  -55.3647 H         1 UNK         0.3460 
     86 H86        26.3854  -45.5573  -58.2473 H         1 UNK         0.2989 
     87 H87        27.5019  -46.5756  -60.4675 H         1 UNK         0.0559 
     88 H88        29.9422  -46.7032  -60.7983 H         1 UNK         0.0848 
     89 H89        29.2604  -48.3191  -60.7635 H         1 UNK         0.0848 
     90 H90        30.1278  -47.6957  -59.3613 H         1 UNK         0.0848 
     91 H91        28.0077  -48.6501  -58.4932 H         1 UNK         0.3144 
     92 H92        24.5076  -48.9571  -57.7148 H         1 UNK         0.0727 
     93 H93        24.7238  -51.1443  -58.8499 H         1 UNK         0.0790 
     94 H94        26.2554  -50.6605  -59.5754 H         1 UNK         0.0790 
     95 H95        24.7585  -49.8687  -60.0520 H         1 UNK         0.0790 
     96 H96        27.2555  -49.5859  -56.9240 H         1 UNK         0.3215 
     97 H97        26.0226  -51.6337  -54.2190 H         1 UNK         0.0863 
     98 H98        27.9834  -52.9680  -54.8556 H         1 UNK         0.0808 
     99 H99        28.1339  -52.1031  -56.3855 H         1 UNK         0.0808 
    100 H100       26.7483  -53.1439  -56.0887 H         1 UNK         0.0808 
    101 H101       28.5729  -50.4691  -54.5466 H         1 UNK         0.3118 
    102 H102       27.8974  -47.4540  -52.7162 H         1 UNK         0.0546 
    103 H103       29.4087  -50.0374  -52.0465 H         1 UNK         0.0828 
    104 H104       28.1953  -49.2650  -51.0313 H         1 UNK         0.0828 
    105 H105       29.7227  -48.4533  -51.3490 H         1 UNK         0.0828 
    106 H106       30.3139  -48.4933  -53.7901 H         1 UNK         0.3005 
    107 H107       30.1058  -46.8402  -56.9673 H         1 UNK         0.1257 
    108 H108       31.9242  -46.6558  -54.5224 H         1 UNK         0.0775 
    109 H109       31.0244  -45.3250  -55.1484 H         1 UNK         0.0775 
    110 H110       33.4680  -43.9296  -57.7947 H         1 UNK         0.0840 
    111 H111       31.8424  -44.4440  -58.1330 H         1 UNK         0.0840 
    112 H112       31.9621  -48.7209  -55.9463 H         1 UNK         0.2987 
    113 H113       30.4462  -51.6939  -57.1557 H         1 UNK         0.0785 
    114 H114       31.5448  -50.6618  -59.1480 H         1 UNK         0.0798 
    115 H115       32.6013  -51.8305  -58.3740 H         1 UNK         0.0798 
    116 H116       32.8761  -50.1029  -58.1452 H         1 UNK         0.0798 
    117 H117       32.9549  -51.1855  -55.8840 H         1 UNK         0.3079 
    118 H118       31.7616  -51.6980  -52.5245 H         1 UNK         0.0794 
    119 H119       33.6032  -53.3306  -52.6524 H         1 UNK         0.0786 
    120 H120       33.6849  -53.1690  -54.4064 H         1 UNK         0.0786 
    121 H121       32.2677  -53.8815  -53.6480 H         1 UNK         0.0786 
    122 H122       34.3511  -50.9983  -53.2766 H         1 UNK         0.3032 
    123 H123       35.0193  -48.9385  -52.1796 H         1 UNK         0.1094 
    124 H124       34.4882  -47.8131  -54.9983 H         1 UNK         0.0794 
    125 H125       35.9899  -47.6113  -54.1025 H         1 UNK         0.0794 
    126 H126       35.4931  -49.2065  -54.6325 H         1 UNK         0.0794 
    127 H127       32.9145  -46.9933  -52.4810 H         1 UNK         0.3016 
@<TRIPOS>BOND
     1    1    2 1    
     2    1   67 1    
     3    1   68 1    
     4    1   69 1    
     5    2    3 2    
     6    2    4 am   BACKBONE|DICT|INTERRES
     7    4    5 1    
     8    4   70 1    
     9    5    6 1    
    10    5   65 1    
    11    5   71 1    
    12    6    7 1    
    13    6   72 1    
    14    6   73 1    
    15    7    8 1    
    16    8    9 1    
    17    8   74 1    
    18    8   75 1    
    19    9   10 ar   
    20    9   14 ar   
    21   10   11 ar   
    22   10   76 1    
    23   11   12 ar   
    24   11   48 1    
    25   12   13 ar   
    26   12   77 1    
    27   13   14 ar   
    28   13   15 1    
    29   14   78 1    
    30   15   16 1    
    31   15   79 1    
    32   15   80 1    
    33   16   17 1    
    34   17   18 1    
    35   17   81 1    
    36   17   82 1    
    37   18   19 1    
    38   18   22 1    
    39   18   83 1    
    40   19   20 am   BACKBONE|DICT|INTERRES
    41   19   21 2    
    42   20   84 1    
    43   20   85 1    
    44   22   23 am   BACKBONE|DICT|INTERRES
    45   22   86 1    
    46   23   24 2    
    47   23   25 1    
    48   25   26 1    
    49   25   27 1    
    50   25   87 1    
    51   26   88 1    
    52   26   89 1    
    53   26   90 1    
    54   27   28 am   BACKBONE|DICT|INTERRES
    55   27   91 1    
    56   28   29 2    
    57   28   30 1    
    58   30   31 1    
    59   30   32 1    
    60   30   92 1    
    61   31   93 1    
    62   31   94 1    
    63   31   95 1    
    64   32   33 am   BACKBONE|DICT|INTERRES
    65   32   96 1    
    66   33   34 2    
    67   33   35 1    
    68   35   36 1    
    69   35   37 1    
    70   35   97 1    
    71   36   98 1    
    72   36   99 1    
    73   36  100 1    
    74   37   38 am   BACKBONE|DICT|INTERRES
    75   37  101 1    
    76   38   39 2    
    77   38   40 1    
    78   40   41 1    
    79   40   42 1    
    80   40  102 1    
    81   41  103 1    
    82   41  104 1    
    83   41  105 1    
    84   42   43 am   BACKBONE|DICT|INTERRES
    85   42  106 1    
    86   43   44 2    
    87   43   45 1    
    88   45   46 1    
    89   45   49 1    
    90   45  107 1    
    91   46   47 1    
    92   46  108 1    
    93   46  109 1    
    94   47   48 1    
    95   48  110 1    
    96   48  111 1    
    97   49   50 am   BACKBONE|DICT|INTERRES
    98   49  112 1    
    99   50   51 2    
   100   50   52 1    
   101   52   53 1    
   102   52   54 1    
   103   52  113 1    
   104   53  114 1    
   105   53  115 1    
   106   53  116 1    
   107   54   55 am   BACKBONE|DICT|INTERRES
   108   54  117 1    
   109   55   56 2    
   110   55   57 1    
   111   57   58 1    
   112   57   59 1    
   113   57  118 1    
   114   58  119 1    
   115   58  120 1    
   116   58  121 1    
   117   59   60 am   BACKBONE|DICT|INTERRES
   118   59  122 1    
   119   60   61 2    
   120   60   62 1    
   121   62   63 1    
   122   62   64 1    
   123   62  123 1    
   124   63  124 1    
   125   63  125 1    
   126   63  126 1    
   127   64   65 am   BACKBONE|DICT|INTERRES
   128   64  127 1    
   129   65   66 2    
@<TRIPOS>SUBSTRUCTURE
     1 UNK         1 GROUP             0       ****    0 ROOT    
