@<TRIPOS>MOLECULE
3R134
127   129    1
SMALL
USER_CHARGES


@<TRIPOS>ATOM
      1 CA         32.6588  -46.6232  -50.1830 C.3       0 UNK        -0.1968 
      2 C          34.0061  -46.1192  -50.6799 C.2       0 UNK         0.4852 
      3 O          34.5932  -45.2296  -50.0619 O.2       0 UNK        -0.5359 
      4 N          34.4888  -46.6727  -51.7952 N.am      1 UNK        -0.4300 
      5 CA         35.7235  -46.2765  -52.4731 C.3       1 UNK         0.0863 
      6 C6         35.5533  -45.0182  -53.3759 C.3       11 UNK        -0.0953 
      7 S7         34.0532  -45.0392  -54.4258 S.3       11 UNK        -0.2369 
      8 C8         33.0970  -43.7082  -53.6251 C.3       11 UNK         0.0226 
      9 C9         31.6305  -43.6721  -54.0388 C.ar      11 UNK        -0.0699 
     10 C10        30.6368  -43.5689  -53.0587 C.ar      11 UNK        -0.0804 
     11 C11        29.2892  -43.4658  -53.4165 C.ar      11 UNK        -0.0871 
     12 C12        28.9365  -43.4953  -54.7690 C.ar      11 UNK        -0.1008 
     13 C13        29.9178  -43.6008  -55.7591 C.ar      11 UNK        -0.0735 
     14 C14        31.2632  -43.6804  -55.3888 C.ar      11 UNK        -0.0945 
     15 C15        29.5177  -43.6485  -57.2250 C.3       11 UNK         0.0169 
     16 S16        28.7596  -42.0913  -57.7757 S.3       11 UNK        -0.2669 
     17 C17        28.2427  -42.5322  -59.4696 C.3       11 UNK        -0.0850 
     18 CA         26.7832  -43.0551  -59.5180 C.3       10 UNK         0.0855 
     19 C          26.2214  -43.0101  -60.9638 C.2       10 UNK         0.5543 
     20 N          25.6087  -41.9010  -61.3541 N.am      10 UNK        -0.7343 
     21 O          26.3697  -43.9483  -61.7448 O.2       10 UNK        -0.5027 
     22 N          26.6833  -44.4083  -58.9561 N.am      10 UNK        -0.4495 
     23 C          25.5849  -44.9388  -58.4143 C.2       10 UNK         0.4903 
     24 O          24.5469  -44.3027  -58.2278 O.2       10 UNK        -0.4860 
     25 CA         25.6223  -46.4244  -58.0021 C.3       9 UNK         0.0227 
     26 CB         24.9788  -47.3046  -59.0906 C.3       9 UNK        -0.1964 
     27 N          26.9265  -46.9738  -57.5969 N.am      9 UNK        -0.4231 
     28 C          28.0390  -47.1637  -58.3238 C.2       9 UNK         0.5014 
     29 O          28.1969  -46.7348  -59.4671 O.2       9 UNK        -0.5270 
     30 CA         29.1677  -47.9830  -57.6710 C.3       8 UNK         0.0284 
     31 CB         30.0751  -47.0950  -56.8051 C.3       8 UNK        -0.1977 
     32 N          28.6689  -49.0947  -56.8606 N.am      8 UNK        -0.4342 
     33 C          28.0226  -50.1705  -57.3322 C.2       8 UNK         0.5039 
     34 O          27.7996  -50.3732  -58.5262 O.2       8 UNK        -0.5547 
     35 CA         27.5352  -51.1900  -56.2916 C.3       7 UNK         0.0281 
     36 CB         28.6779  -52.1235  -55.8580 C.3       7 UNK        -0.1963 
     37 N          26.9717  -50.5222  -55.1174 N.am      7 UNK        -0.4444 
     38 C          25.7066  -50.0894  -55.0290 C.2       7 UNK         0.5104 
     39 O          24.8580  -50.2702  -55.9026 O.2       7 UNK        -0.5100 
     40 CA         25.3113  -49.3259  -53.7499 C.3       6 UNK         0.0396 
     41 CB         24.6815  -50.2860  -52.7285 C.3       6 UNK        -0.1801 
     42 N          26.4217  -48.6082  -53.1156 N.am      6 UNK        -0.4747 
     43 C          27.0576  -47.5582  -53.6567 C.2       6 UNK         0.5012 
     44 O          26.7837  -47.0927  -54.7631 O.2       6 UNK        -0.5003 
     45 CA         28.2514  -46.9836  -52.8588 C.3       5 UNK         0.0782 
     46 C46        27.8026  -45.9970  -51.7521 C.3       11 UNK        -0.0868 
     47 S47        26.9208  -44.5280  -52.3803 S.3       11 UNK        -0.2515 
     48 C48        28.2237  -43.2567  -52.3468 C.3       11 UNK         0.0199 
     49 N          29.1211  -48.0304  -52.3002 N.am      5 UNK        -0.4607 
     50 C          29.7005  -49.0073  -53.0085 C.2       4 UNK         0.5031 
     51 O          29.5081  -49.1833  -54.2126 O.2       4 UNK        -0.5119 
     52 CA         30.5981  -49.9924  -52.2431 C.3       4 UNK         0.0263 
     53 CB         29.7595  -51.1648  -51.7088 C.3       4 UNK        -0.1967 
     54 N          31.6482  -50.5154  -53.1199 N.am      4 UNK        -0.4237 
     55 C          32.6526  -49.7746  -53.6027 C.2       3 UNK         0.4908 
     56 O          32.9089  -48.6289  -53.2128 O.2       3 UNK        -0.5102 
     57 CA         33.4945  -50.4115  -54.7180 C.3       3 UNK         0.0241 
     58 CB         32.6635  -50.6549  -55.9921 C.3       3 UNK        -0.1971 
     59 N          34.5801  -49.4906  -55.0179 N.am      3 UNK        -0.4139 
     60 C          35.8412  -49.8034  -55.3255 C.2       2 UNK         0.5016 
     61 O          36.2315  -50.9457  -55.5701 O.2       2 UNK        -0.5319 
     62 CA         36.8447  -48.6333  -55.3325 C.3       2 UNK         0.0286 
     63 CB         37.0932  -48.1441  -56.7684 C.3       2 UNK        -0.1963 
     64 N          36.4126  -47.4973  -54.5050 N.am      2 UNK        -0.4790 
     65 C          36.3015  -47.5212  -53.1682 C.2       1 UNK         0.5024 
     66 O          36.6241  -48.4922  -52.4811 O.2       1 UNK        -0.4888 
     67 H67        32.1934  -47.3015  -50.8973 H         1 UNK         0.0892 
     68 H68        32.7795  -47.1510  -49.2374 H         1 UNK         0.0892 
     69 H69        31.9801  -45.7856  -50.0246 H         1 UNK         0.0892 
     70 H70        33.9591  -47.4078  -52.2626 H         1 UNK         0.3107 
     71 H71        36.4627  -46.0253  -51.7092 H         1 UNK         0.0773 
     72 H72        35.5190  -44.1367  -52.7342 H         1 UNK         0.0680 
     73 H73        36.4295  -44.8586  -54.0066 H         1 UNK         0.0680 
     74 H74        33.5562  -42.7484  -53.8648 H         1 UNK         0.0650 
     75 H75        33.1735  -43.8273  -52.5433 H         1 UNK         0.0650 
     76 H76        30.9165  -43.5360  -52.0145 H         1 UNK         0.1397 
     77 H77        27.8957  -43.4195  -55.0546 H         1 UNK         0.1363 
     78 H78        32.0280  -43.7501  -56.1502 H         1 UNK         0.1355 
     79 H79        28.8089  -44.4634  -57.3573 H         1 UNK         0.0707 
     80 H80        30.3773  -43.8718  -57.8587 H         1 UNK         0.0707 
     81 H81        28.3443  -41.6266  -60.0713 H         1 UNK         0.1034 
     82 H82        28.9354  -43.2560  -59.9033 H         1 UNK         0.1034 
     83 H83        26.1686  -42.3879  -58.9094 H         1 UNK         0.0482 
     84 H84        25.2493  -41.8442  -62.2944 H         1 UNK         0.3460 
     85 H85        25.4898  -41.1217  -60.7251 H         1 UNK         0.3460 
     86 H86        27.4370  -45.0512  -59.1815 H         1 UNK         0.2989 
     87 H87        24.9982  -46.5043  -57.1106 H         1 UNK         0.0559 
     88 H88        25.5465  -47.2783  -60.0213 H         1 UNK         0.0848 
     89 H89        23.9668  -46.9673  -59.3186 H         1 UNK         0.0848 
     90 H90        24.9095  -48.3441  -58.7687 H         1 UNK         0.0848 
     91 H91        26.9604  -47.2594  -56.6197 H         1 UNK         0.3144 
     92 H92        29.7748  -48.4089  -58.4725 H         1 UNK         0.0727 
     93 H93        29.5155  -46.5926  -56.0152 H         1 UNK         0.0790 
     94 H94        30.5599  -46.3293  -57.4102 H         1 UNK         0.0790 
     95 H95        30.8670  -47.6737  -56.3297 H         1 UNK         0.0790 
     96 H96        28.8713  -49.0544  -55.8619 H         1 UNK         0.3215 
     97 H97        26.7624  -51.8032  -56.7611 H         1 UNK         0.0863 
     98 H98        28.3221  -52.8903  -55.1698 H         1 UNK         0.0808 
     99 H99        29.4837  -51.5803  -55.3653 H         1 UNK         0.0808 
    100 H100       29.1094  -52.6357  -56.7190 H         1 UNK         0.0808 
    101 H101       27.6204  -50.2682  -54.3843 H         1 UNK         0.3118 
    102 H102       24.5572  -48.5879  -54.0317 H         1 UNK         0.0546 
    103 H103       23.8324  -50.8155  -53.1631 H         1 UNK         0.0828 
    104 H104       24.3119  -49.7502  -51.8540 H         1 UNK         0.0828 
    105 H105       25.3936  -51.0385  -52.3873 H         1 UNK         0.0828 
    106 H106       26.7234  -48.9389  -52.2103 H         1 UNK         0.3005 
    107 H107       28.8619  -46.4269  -53.5738 H         1 UNK         0.1257 
    108 H108       28.6696  -45.6617  -51.1807 H         1 UNK         0.0775 
    109 H109       27.1523  -46.5000  -51.0341 H         1 UNK         0.0775 
    110 H110       27.7599  -42.2826  -52.5084 H         1 UNK         0.0840 
    111 H111       28.6647  -43.2187  -51.3495 H         1 UNK         0.0840 
    112 H112       29.3061  -47.9732  -51.3095 H         1 UNK         0.2987 
    113 H113       31.0672  -49.4754  -51.4038 H         1 UNK         0.0785 
    114 H114       29.2645  -51.7100  -52.5139 H         1 UNK         0.0798 
    115 H115       28.9831  -50.8144  -51.0273 H         1 UNK         0.0798 
    116 H116       30.3765  -51.8729  -51.1551 H         1 UNK         0.0798 
    117 H117       31.4971  -51.4365  -53.5032 H         1 UNK         0.3079 
    118 H118       33.8997  -51.3557  -54.3478 H         1 UNK         0.0794 
    119 H119       32.1750  -49.7425  -56.3359 H         1 UNK         0.0786 
    120 H120       31.8850  -51.3985  -55.8224 H         1 UNK         0.0786 
    121 H121       33.2871  -51.0256  -56.8058 H         1 UNK         0.0786 
    122 H122       34.3745  -48.5309  -54.7700 H         1 UNK         0.3032 
    123 H123       37.7860  -49.0116  -54.9270 H         1 UNK         0.1094 
    124 H124       37.8579  -47.3676  -56.7970 H         1 UNK         0.0794 
    125 H125       37.4394  -48.9607  -57.4039 H         1 UNK         0.0794 
    126 H126       36.1862  -47.7411  -57.2209 H         1 UNK         0.0794 
    127 H127       36.1087  -46.6651  -54.9929 H         1 UNK         0.3016 
@<TRIPOS>BOND
     1    1    2 1    
     2    1   67 1    
     3    1   68 1    
     4    1   69 1    
     5    2    3 2    
     6    2    4 am   BACKBONE|DICT|INTERRES
     7    4    5 1    
     8    4   70 1    
     9    5    6 1    
    10    5   65 1    
    11    5   71 1    
    12    6    7 1    
    13    6   72 1    
    14    6   73 1    
    15    7    8 1    
    16    8    9 1    
    17    8   74 1    
    18    8   75 1    
    19    9   10 ar   
    20    9   14 ar   
    21   10   11 ar   
    22   10   76 1    
    23   11   12 ar   
    24   11   48 1    
    25   12   13 ar   
    26   12   77 1    
    27   13   14 ar   
    28   13   15 1    
    29   14   78 1    
    30   15   16 1    
    31   15   79 1    
    32   15   80 1    
    33   16   17 1    
    34   17   18 1    
    35   17   81 1    
    36   17   82 1    
    37   18   19 1    
    38   18   22 1    
    39   18   83 1    
    40   19   20 am   BACKBONE|DICT|INTERRES
    41   19   21 2    
    42   20   84 1    
    43   20   85 1    
    44   22   23 am   BACKBONE|DICT|INTERRES
    45   22   86 1    
    46   23   24 2    
    47   23   25 1    
    48   25   26 1    
    49   25   27 1    
    50   25   87 1    
    51   26   88 1    
    52   26   89 1    
    53   26   90 1    
    54   27   28 am   BACKBONE|DICT|INTERRES
    55   27   91 1    
    56   28   29 2    
    57   28   30 1    
    58   30   31 1    
    59   30   32 1    
    60   30   92 1    
    61   31   93 1    
    62   31   94 1    
    63   31   95 1    
    64   32   33 am   BACKBONE|DICT|INTERRES
    65   32   96 1    
    66   33   34 2    
    67   33   35 1    
    68   35   36 1    
    69   35   37 1    
    70   35   97 1    
    71   36   98 1    
    72   36   99 1    
    73   36  100 1    
    74   37   38 am   BACKBONE|DICT|INTERRES
    75   37  101 1    
    76   38   39 2    
    77   38   40 1    
    78   40   41 1    
    79   40   42 1    
    80   40  102 1    
    81   41  103 1    
    82   41  104 1    
    83   41  105 1    
    84   42   43 am   BACKBONE|DICT|INTERRES
    85   42  106 1    
    86   43   44 2    
    87   43   45 1    
    88   45   46 1    
    89   45   49 1    
    90   45  107 1    
    91   46   47 1    
    92   46  108 1    
    93   46  109 1    
    94   47   48 1    
    95   48  110 1    
    96   48  111 1    
    97   49   50 am   BACKBONE|DICT|INTERRES
    98   49  112 1    
    99   50   51 2    
   100   50   52 1    
   101   52   53 1    
   102   52   54 1    
   103   52  113 1    
   104   53  114 1    
   105   53  115 1    
   106   53  116 1    
   107   54   55 am   BACKBONE|DICT|INTERRES
   108   54  117 1    
   109   55   56 2    
   110   55   57 1    
   111   57   58 1    
   112   57   59 1    
   113   57  118 1    
   114   58  119 1    
   115   58  120 1    
   116   58  121 1    
   117   59   60 am   BACKBONE|DICT|INTERRES
   118   59  122 1    
   119   60   61 2    
   120   60   62 1    
   121   62   63 1    
   122   62   64 1    
   123   62  123 1    
   124   63  124 1    
   125   63  125 1    
   126   63  126 1    
   127   64   65 am   BACKBONE|DICT|INTERRES
   128   64  127 1    
   129   65   66 2    
@<TRIPOS>SUBSTRUCTURE
     1 UNK         1 GROUP             0       ****    0 ROOT    
