@<TRIPOS>MOLECULE
3R134
127   129    1
SMALL
USER_CHARGES


@<TRIPOS>ATOM
      1 CA         35.6264  -46.4438  -53.3512 C.3       0 UNK        -0.1968 
      2 C          34.1140  -46.4936  -53.4985 C.2       0 UNK         0.4852 
      3 O          33.6164  -46.9930  -54.5078 O.2       0 UNK        -0.5359 
      4 N          33.3756  -45.9732  -52.5072 N.am      1 UNK        -0.4300 
      5 CA         31.9073  -45.9732  -52.4860 C.3       1 UNK         0.0863 
      6 C6         31.3043  -45.0880  -51.3673 C.3       11 UNK        -0.0953 
      7 S7         31.9898  -43.3945  -51.3277 S.3       11 UNK        -0.2369 
      8 C8         30.7482  -42.4234  -52.2573 C.3       11 UNK         0.0226 
      9 C9         30.8260  -42.4990  -53.7862 C.ar      11 UNK        -0.0699 
     10 C10        31.8668  -43.1434  -54.4687 C.ar      11 UNK        -0.0804 
     11 C11        31.8829  -43.2044  -55.8639 C.ar      11 UNK        -0.0871 
     12 C12        30.8935  -42.5379  -56.5894 C.ar      11 UNK        -0.1008 
     13 C13        29.8509  -41.8839  -55.9307 C.ar      11 UNK        -0.0735 
     14 C14        29.8183  -41.8771  -54.5323 C.ar      11 UNK        -0.0945 
     15 C15        28.7620  -41.1848  -56.7304 C.3       11 UNK         0.0169 
     16 S16        27.4120  -42.3230  -57.1696 S.3       11 UNK        -0.2669 
     17 C17        28.1303  -43.2211  -58.5908 C.3       11 UNK        -0.0850 
     18 CA         27.1239  -44.2109  -59.2324 C.3       10 UNK         0.0855 
     19 C          27.6879  -44.8251  -60.5463 C.2       10 UNK         0.5543 
     20 N          27.7941  -46.1423  -60.6749 N.am      10 UNK        -0.7343 
     21 O          28.0255  -44.0907  -61.4713 O.2       10 UNK        -0.5027 
     22 N          26.6775  -45.2079  -58.2496 N.am      10 UNK        -0.4495 
     23 C          25.4631  -45.7664  -58.1955 C.2       10 UNK         0.4903 
     24 O          24.5657  -45.5472  -59.0095 O.2       10 UNK        -0.4860 
     25 CA         25.2040  -46.7364  -57.0285 C.3       9 UNK         0.0227 
     26 CB         25.2613  -48.1896  -57.5232 C.3       9 UNK        -0.1964 
     27 N          26.1663  -46.5612  -55.9361 N.am      9 UNK        -0.4231 
     28 C          26.1308  -45.5669  -55.0377 C.2       9 UNK         0.5014 
     29 O          25.2142  -44.7457  -54.9643 O.2       9 UNK        -0.5270 
     30 CA         27.3337  -45.4800  -54.0758 C.3       8 UNK         0.0284 
     31 CB         27.1389  -44.4371  -52.9557 C.3       8 UNK        -0.1977 
     32 N          27.7077  -46.7832  -53.5138 N.am      8 UNK        -0.4342 
     33 C          26.9391  -47.6207  -52.8002 C.2       8 UNK         0.5039 
     34 O          25.7751  -47.3902  -52.4677 O.2       8 UNK        -0.5547 
     35 CA         27.6122  -48.9454  -52.3991 C.3       7 UNK         0.0281 
     36 CB         26.6576  -49.9487  -51.7156 C.3       7 UNK        -0.1963 
     37 N          28.3272  -49.5497  -53.5320 N.am      7 UNK        -0.4444 
     38 C          27.7991  -50.0838  -54.6410 C.2       7 UNK         0.5104 
     39 O          26.5908  -50.2005  -54.8465 O.2       7 UNK        -0.5100 
     40 CA         28.8137  -50.5761  -55.6924 C.3       6 UNK         0.0396 
     41 CB         28.1392  -51.0847  -56.9826 C.3       6 UNK        -0.1801 
     42 N          29.8669  -49.6088  -56.0299 N.am      6 UNK        -0.4747 
     43 C          29.7245  -48.3516  -56.4827 C.2       6 UNK         0.5012 
     44 O          28.6447  -47.7596  -56.5152 O.2       6 UNK        -0.5003 
     45 CA         30.9882  -47.6510  -57.0365 C.3       5 UNK         0.0782 
     46 C46        31.0652  -46.1524  -56.6567 C.3       11 UNK        -0.0868 
     47 S47        32.2537  -45.2572  -57.7181 S.3       11 UNK        -0.2515 
     48 C48        32.9568  -44.0143  -56.5802 C.3       11 UNK         0.0199 
     49 N          32.2163  -48.3785  -56.6827 N.am      5 UNK        -0.4607 
     50 C          32.7966  -49.2997  -57.4624 C.2       4 UNK         0.5031 
     51 O          32.4098  -49.5786  -58.5975 O.2       4 UNK        -0.5119 
     52 CA         33.9601  -50.0955  -56.8518 C.3       4 UNK         0.0263 
     53 CB         35.2227  -49.2373  -56.6728 C.3       4 UNK        -0.1967 
     54 N          33.5912  -50.7407  -55.5872 N.am      4 UNK        -0.4237 
     55 C          32.7473  -51.7768  -55.4824 C.2       3 UNK         0.4908 
     56 O          32.1355  -52.2559  -56.4365 O.2       3 UNK        -0.5102 
     57 CA         32.5453  -52.4008  -54.0901 C.3       3 UNK         0.0241 
     58 CB         33.8356  -53.0744  -53.5789 C.3       3 UNK        -0.1971 
     59 N          31.9707  -51.4929  -53.0887 N.am      3 UNK        -0.4139 
     60 C          32.5161  -50.3868  -52.5667 C.2       2 UNK         0.5016 
     61 O          33.6286  -49.9504  -52.8734 O.2       2 UNK        -0.5319 
     62 CA         31.6895  -49.6714  -51.4860 C.3       2 UNK         0.0286 
     63 CB         32.0729  -50.1853  -50.0894 C.3       2 UNK        -0.1963 
     64 N          31.9195  -48.2299  -51.5417 N.am      2 UNK        -0.4790 
     65 C          31.3523  -47.4057  -52.4315 C.2       1 UNK         0.5024 
     66 O          30.4677  -47.7442  -53.2180 O.2       1 UNK        -0.4888 
     67 H67        36.0666  -45.9086  -54.1920 H         1 UNK         0.0892 
     68 H68        35.9314  -45.9451  -52.4315 H         1 UNK         0.0892 
     69 H69        36.0304  -47.4560  -53.3409 H         1 UNK         0.0892 
     70 H70        33.8287  -45.5507  -51.7094 H         1 UNK         0.3107 
     71 H71        31.5667  -45.5660  -53.4354 H         1 UNK         0.0773 
     72 H72        31.4914  -45.5332  -50.3883 H         1 UNK         0.0680 
     73 H73        30.2194  -45.0336  -51.4691 H         1 UNK         0.0680 
     74 H74        29.7505  -42.7131  -51.9259 H         1 UNK         0.0650 
     75 H75        30.8700  -41.3782  -51.9703 H         1 UNK         0.0650 
     76 H76        32.6673  -43.6191  -53.9235 H         1 UNK         0.1397 
     77 H77        30.9220  -42.5560  -57.6700 H         1 UNK         0.1363 
     78 H78        29.0082  -41.3742  -54.0217 H         1 UNK         0.1355 
     79 H79        29.1793  -40.7362  -57.6333 H         1 UNK         0.0707 
     80 H80        28.3473  -40.3608  -56.1478 H         1 UNK         0.0707 
     81 H81        29.0200  -43.7601  -58.2638 H         1 UNK         0.1034 
     82 H82        28.4650  -42.4840  -59.3234 H         1 UNK         0.1034 
     83 H83        26.2527  -43.6284  -59.5383 H         1 UNK         0.0482 
     84 H84        28.1547  -46.5282  -61.5332 H         1 UNK         0.3460 
     85 H85        27.5064  -46.7507  -59.9261 H         1 UNK         0.3460 
     86 H86        27.3507  -45.4691  -57.5455 H         1 UNK         0.2989 
     87 H87        24.1997  -46.5425  -56.6464 H         1 UNK         0.0559 
     88 H88        24.5196  -48.3669  -58.3031 H         1 UNK         0.0848 
     89 H89        25.0567  -48.8929  -56.7159 H         1 UNK         0.0848 
     90 H90        26.2384  -48.4317  -57.9412 H         1 UNK         0.0848 
     91 H91        26.9847  -47.1676  -55.9543 H         1 UNK         0.3144 
     92 H92        28.1824  -45.1540  -54.6800 H         1 UNK         0.0727 
     93 H93        28.0068  -44.3925  -52.2997 H         1 UNK         0.0790 
     94 H94        26.2660  -44.6619  -52.3420 H         1 UNK         0.0790 
     95 H95        26.9968  -43.4399  -53.3742 H         1 UNK         0.0790 
     96 H96        28.6551  -47.0925  -53.7103 H         1 UNK         0.3215 
     97 H97        28.3727  -48.6803  -51.6630 H         1 UNK         0.0863 
     98 H98        27.1733  -50.8715  -51.4509 H         1 UNK         0.0808 
     99 H99        25.8101  -50.2063  -52.3511 H         1 UNK         0.0808 
    100 H100       26.2509  -49.5289  -50.7948 H         1 UNK         0.0808 
    101 H101       29.3252  -49.3714  -53.5419 H         1 UNK         0.3118 
    102 H102       29.3222  -51.4280  -55.2386 H         1 UNK         0.0546 
    103 H103       27.6125  -50.2867  -57.5044 H         1 UNK         0.0828 
    104 H104       27.4122  -51.8681  -56.7651 H         1 UNK         0.0828 
    105 H105       28.8715  -51.5076  -57.6704 H         1 UNK         0.0828 
    106 H106       30.8052  -49.9829  -56.0486 H         1 UNK         0.3005 
    107 H107       30.8536  -47.6879  -58.1201 H         1 UNK         0.1257 
    108 H108       30.1002  -45.6562  -56.7726 H         1 UNK         0.0775 
    109 H109       31.3419  -46.0423  -55.6100 H         1 UNK         0.0775 
    110 H110       33.6014  -44.5274  -55.8653 H         1 UNK         0.0840 
    111 H111       33.5990  -43.3373  -57.1448 H         1 UNK         0.0840 
    112 H112       32.6439  -48.1306  -55.7928 H         1 UNK         0.2987 
    113 H113       34.2102  -50.8874  -57.5617 H         1 UNK         0.0785 
    114 H114       36.0789  -49.8520  -56.3950 H         1 UNK         0.0798 
    115 H115       35.0993  -48.4779  -55.9034 H         1 UNK         0.0798 
    116 H116       35.4804  -48.7232  -57.5997 H         1 UNK         0.0798 
    117 H117       33.9705  -50.3547  -54.7253 H         1 UNK         0.3079 
    118 H118       31.8060  -53.1939  -54.2159 H         1 UNK         0.0794 
    119 H119       34.2039  -53.8055  -54.2999 H         1 UNK         0.0786 
    120 H120       33.6596  -53.6047  -52.6430 H         1 UNK         0.0786 
    121 H121       34.6391  -52.3573  -53.4087 H         1 UNK         0.0786 
    122 H122       31.0589  -51.7693  -52.7516 H         1 UNK         0.3032 
    123 H123       30.6289  -49.8709  -51.6495 H         1 UNK         0.1094 
    124 H124       31.4895  -49.6924  -49.3113 H         1 UNK         0.0794 
    125 H125       31.8881  -51.2568  -50.0014 H         1 UNK         0.0794 
    126 H126       33.1293  -50.0188  -49.8732 H         1 UNK         0.0794 
    127 H127       32.6904  -47.8787  -50.9927 H         1 UNK         0.3016 
@<TRIPOS>BOND
     1    1    2 1    
     2    1   67 1    
     3    1   68 1    
     4    1   69 1    
     5    2    3 2    
     6    2    4 am   BACKBONE|DICT|INTERRES
     7    4    5 1    
     8    4   70 1    
     9    5    6 1    
    10    5   65 1    
    11    5   71 1    
    12    6    7 1    
    13    6   72 1    
    14    6   73 1    
    15    7    8 1    
    16    8    9 1    
    17    8   74 1    
    18    8   75 1    
    19    9   10 ar   
    20    9   14 ar   
    21   10   11 ar   
    22   10   76 1    
    23   11   12 ar   
    24   11   48 1    
    25   12   13 ar   
    26   12   77 1    
    27   13   14 ar   
    28   13   15 1    
    29   14   78 1    
    30   15   16 1    
    31   15   79 1    
    32   15   80 1    
    33   16   17 1    
    34   17   18 1    
    35   17   81 1    
    36   17   82 1    
    37   18   19 1    
    38   18   22 1    
    39   18   83 1    
    40   19   20 am   BACKBONE|DICT|INTERRES
    41   19   21 2    
    42   20   84 1    
    43   20   85 1    
    44   22   23 am   BACKBONE|DICT|INTERRES
    45   22   86 1    
    46   23   24 2    
    47   23   25 1    
    48   25   26 1    
    49   25   27 1    
    50   25   87 1    
    51   26   88 1    
    52   26   89 1    
    53   26   90 1    
    54   27   28 am   BACKBONE|DICT|INTERRES
    55   27   91 1    
    56   28   29 2    
    57   28   30 1    
    58   30   31 1    
    59   30   32 1    
    60   30   92 1    
    61   31   93 1    
    62   31   94 1    
    63   31   95 1    
    64   32   33 am   BACKBONE|DICT|INTERRES
    65   32   96 1    
    66   33   34 2    
    67   33   35 1    
    68   35   36 1    
    69   35   37 1    
    70   35   97 1    
    71   36   98 1    
    72   36   99 1    
    73   36  100 1    
    74   37   38 am   BACKBONE|DICT|INTERRES
    75   37  101 1    
    76   38   39 2    
    77   38   40 1    
    78   40   41 1    
    79   40   42 1    
    80   40  102 1    
    81   41  103 1    
    82   41  104 1    
    83   41  105 1    
    84   42   43 am   BACKBONE|DICT|INTERRES
    85   42  106 1    
    86   43   44 2    
    87   43   45 1    
    88   45   46 1    
    89   45   49 1    
    90   45  107 1    
    91   46   47 1    
    92   46  108 1    
    93   46  109 1    
    94   47   48 1    
    95   48  110 1    
    96   48  111 1    
    97   49   50 am   BACKBONE|DICT|INTERRES
    98   49  112 1    
    99   50   51 2    
   100   50   52 1    
   101   52   53 1    
   102   52   54 1    
   103   52  113 1    
   104   53  114 1    
   105   53  115 1    
   106   53  116 1    
   107   54   55 am   BACKBONE|DICT|INTERRES
   108   54  117 1    
   109   55   56 2    
   110   55   57 1    
   111   57   58 1    
   112   57   59 1    
   113   57  118 1    
   114   58  119 1    
   115   58  120 1    
   116   58  121 1    
   117   59   60 am   BACKBONE|DICT|INTERRES
   118   59  122 1    
   119   60   61 2    
   120   60   62 1    
   121   62   63 1    
   122   62   64 1    
   123   62  123 1    
   124   63  124 1    
   125   63  125 1    
   126   63  126 1    
   127   64   65 am   BACKBONE|DICT|INTERRES
   128   64  127 1    
   129   65   66 2    
@<TRIPOS>SUBSTRUCTURE
     1 UNK         1 GROUP             0       ****    0 ROOT    
