@<TRIPOS>MOLECULE
3R134
127   129    1
SMALL
USER_CHARGES


@<TRIPOS>ATOM
      1 CA         29.2584  -47.2395  -48.9442 C.3       0 UNK        -0.1968 
      2 C          30.5808  -46.5659  -49.2809 C.2       0 UNK         0.4852 
      3 O          31.4398  -46.4423  -48.4072 O.2       0 UNK        -0.5359 
      4 N          30.7372  -46.1207  -50.5352 N.am      1 UNK        -0.4300 
      5 CA         31.9171  -45.4241  -51.0582 C.3       1 UNK         0.0863 
      6 C6         31.6879  -44.9099  -52.5008 C.3       11 UNK        -0.0953 
      7 S7         30.2567  -43.7923  -52.6811 S.3       11 UNK        -0.2369 
      8 C8         30.8753  -42.5647  -53.8824 C.3       11 UNK         0.0226 
      9 C9         31.1717  -43.1853  -55.2425 C.ar      11 UNK        -0.0699 
     10 C10        32.4677  -43.6022  -55.5554 C.ar      11 UNK        -0.0804 
     11 C11        32.7301  -44.2556  -56.7625 C.ar      11 UNK        -0.0871 
     12 C12        31.7122  -44.3944  -57.7077 C.ar      11 UNK        -0.1008 
     13 C13        30.4153  -43.9624  -57.4183 C.ar      11 UNK        -0.0735 
     14 C14        30.1476  -43.3767  -56.1751 C.ar      11 UNK        -0.0945 
     15 C15        29.2972  -44.2414  -58.4106 C.3       11 UNK         0.0169 
     16 S16        28.7974  -42.7931  -59.3975 S.3       11 UNK        -0.2669 
     17 C17        27.6821  -41.8490  -58.2919 C.3       11 UNK        -0.0850 
     18 CA         26.2253  -42.3894  -58.1789 C.3       10 UNK         0.0855 
     19 C          25.4485  -42.3968  -59.5274 C.2       10 UNK         0.5543 
     20 N          24.7964  -43.4862  -59.9244 N.am      10 UNK        -0.7343 
     21 O          25.4106  -41.3811  -60.2177 O.2       10 UNK        -0.5027 
     22 N          26.1482  -43.6628  -57.4564 N.am      10 UNK        -0.4495 
     23 C          26.2550  -43.8463  -56.1405 C.2       10 UNK         0.4903 
     24 O          26.4238  -42.9290  -55.3373 O.2       10 UNK        -0.4860 
     25 CA         26.1808  -45.2952  -55.6179 C.3       9 UNK         0.0227 
     26 CB         24.7494  -45.6357  -55.1633 C.3       9 UNK        -0.1964 
     27 N          26.7044  -46.3423  -56.5124 N.am      9 UNK        -0.4231 
     28 C          26.2641  -46.7434  -57.7164 C.2       9 UNK         0.5014 
     29 O          25.3778  -46.1702  -58.3538 O.2       9 UNK        -0.5270 
     30 CA         26.9283  -47.9965  -58.3163 C.3       8 UNK         0.0284 
     31 CB         28.2133  -47.6329  -59.0754 C.3       8 UNK        -0.1977 
     32 N          27.2300  -49.0147  -57.3077 N.am      8 UNK        -0.4342 
     33 C          26.3073  -49.7010  -56.6176 C.2       8 UNK         0.5039 
     34 O          25.0957  -49.6289  -56.8268 O.2       8 UNK        -0.5547 
     35 CA         26.8218  -50.6013  -55.4842 C.3       7 UNK         0.0281 
     36 CB         27.2527  -51.9770  -56.0194 C.3       7 UNK        -0.1963 
     37 N          27.9282  -49.9755  -54.7561 N.am      7 UNK        -0.4444 
     38 C          27.7776  -48.9814  -53.8693 C.2       7 UNK         0.5104 
     39 O          26.6873  -48.5232  -53.5291 O.2       7 UNK        -0.5100 
     40 CA         29.0599  -48.4017  -53.2473 C.3       6 UNK         0.0396 
     41 CB         29.4161  -49.1941  -51.9791 C.3       6 UNK        -0.1801 
     42 N          30.2103  -48.3957  -54.1573 N.am      6 UNK        -0.4747 
     43 C          30.2903  -47.6865  -55.2936 C.2       6 UNK         0.5012 
     44 O          29.3915  -46.9457  -55.6915 O.2       6 UNK        -0.5003 
     45 CA         31.5468  -47.8965  -56.1687 C.3       5 UNK         0.0782 
     46 C46        32.7716  -47.1184  -55.6267 C.3       11 UNK        -0.0868 
     47 S47        33.9765  -46.7490  -56.9558 S.3       11 UNK        -0.2515 
     48 C48        34.0810  -44.9182  -56.9878 C.3       11 UNK         0.0199 
     49 N          31.8846  -49.3128  -56.3262 N.am      5 UNK        -0.4607 
     50 C          31.0906  -50.2940  -56.7626 C.2       4 UNK         0.5031 
     51 O          29.9394  -50.1103  -57.1574 O.2       4 UNK        -0.5119 
     52 CA         31.6498  -51.7293  -56.6952 C.3       4 UNK         0.0263 
     53 CB         32.4839  -52.0607  -57.9476 C.3       4 UNK        -0.1967 
     54 N          32.3767  -52.0347  -55.4479 N.am      4 UNK        -0.4237 
     55 C          33.5430  -51.5344  -55.0101 C.2       3 UNK         0.4908 
     56 O          34.2582  -50.7698  -55.6614 O.2       3 UNK        -0.5102 
     57 CA         33.9575  -51.9089  -53.5743 C.3       3 UNK         0.0241 
     58 CB         35.1099  -52.9261  -53.5919 C.3       3 UNK        -0.1971 
     59 N          34.3565  -50.7313  -52.7908 N.am      3 UNK        -0.4139 
     60 C          33.5723  -49.6671  -52.5675 C.2       2 UNK         0.5016 
     61 O          32.4040  -49.5945  -52.9595 O.2       2 UNK        -0.5319 
     62 CA         34.1806  -48.4789  -51.8028 C.3       2 UNK         0.0286 
     63 CB         35.3965  -47.8946  -52.5584 C.3       2 UNK        -0.1963 
     64 N          33.1251  -47.4757  -51.6395 N.am      2 UNK        -0.4790 
     65 C          33.1907  -46.2981  -51.0052 C.2       1 UNK         0.5024 
     66 O          34.1871  -45.8900  -50.4074 O.2       1 UNK        -0.4888 
     67 H67        28.5293  -47.1320  -49.7470 H         1 UNK         0.0892 
     68 H68        29.4143  -48.3025  -48.7625 H         1 UNK         0.0892 
     69 H69        28.8315  -46.7991  -48.0435 H         1 UNK         0.0892 
     70 H70        29.9743  -46.2133  -51.1892 H         1 UNK         0.3107 
     71 H71        32.0915  -44.5583  -50.4155 H         1 UNK         0.0773 
     72 H72        32.5845  -44.3946  -52.8460 H         1 UNK         0.0680 
     73 H73        31.5225  -45.7460  -53.1790 H         1 UNK         0.0680 
     74 H74        31.7659  -42.0801  -53.4793 H         1 UNK         0.0650 
     75 H75        30.1269  -41.7790  -53.9961 H         1 UNK         0.0650 
     76 H76        33.2590  -43.4836  -54.8287 H         1 UNK         0.1397 
     77 H77        31.9175  -44.9042  -58.6392 H         1 UNK         0.1363 
     78 H78        29.1391  -43.0955  -55.9126 H         1 UNK         0.1355 
     79 H79        28.4512  -44.6752  -57.8887 H         1 UNK         0.0707 
     80 H80        29.6216  -45.0086  -59.1143 H         1 UNK         0.0707 
     81 H81        28.1300  -41.7553  -57.3052 H         1 UNK         0.1034 
     82 H82        27.6510  -40.8262  -58.6713 H         1 UNK         0.1034 
     83 H83        25.6732  -41.6693  -57.5721 H         1 UNK         0.0482 
     84 H84        24.7933  -44.3387  -59.3820 H         1 UNK         0.3460 
     85 H85        24.2939  -43.4550  -60.7974 H         1 UNK         0.3460 
     86 H86        25.9622  -44.4871  -58.0203 H         1 UNK         0.2989 
     87 H87        26.8220  -45.3327  -54.7355 H         1 UNK         0.0559 
     88 H88        24.3916  -44.9156  -54.4263 H         1 UNK         0.0848 
     89 H89        24.7078  -46.6218  -54.6998 H         1 UNK         0.0848 
     90 H90        24.0451  -45.6265  -55.9957 H         1 UNK         0.0848 
     91 H91        27.5360  -46.8081  -56.1554 H         1 UNK         0.3144 
     92 H92        26.2242  -48.4301  -59.0296 H         1 UNK         0.0727 
     93 H93        28.9843  -47.2540  -58.4045 H         1 UNK         0.0790 
     94 H94        28.0204  -46.8669  -59.8278 H         1 UNK         0.0790 
     95 H95        28.6235  -48.5001  -59.5933 H         1 UNK         0.0790 
     96 H96        28.2112  -49.2049  -57.1208 H         1 UNK         0.3215 
     97 H97        25.9969  -50.7580  -54.7853 H         1 UNK         0.0863 
     98 H98        27.5915  -52.6284  -55.2137 H         1 UNK         0.0808 
     99 H99        28.0567  -51.9004  -56.7511 H         1 UNK         0.0808 
    100 H100       26.4174  -52.4782  -56.5103 H         1 UNK         0.0808 
    101 H101       28.8646  -50.2578  -55.0072 H         1 UNK         0.3118 
    102 H102       28.8536  -47.3672  -52.9651 H         1 UNK         0.0546 
    103 H103       29.6554  -50.2331  -52.2096 H         1 UNK         0.0828 
    104 H104       28.5838  -49.2027  -51.2744 H         1 UNK         0.0828 
    105 H105       30.2752  -48.7688  -51.4637 H         1 UNK         0.0828 
    106 H106       31.0057  -48.9733  -53.8834 H         1 UNK         0.3005 
    107 H107       31.2910  -47.5091  -57.1572 H         1 UNK         0.1257 
    108 H108       32.4717  -46.2011  -55.1311 H         1 UNK         0.0775 
    109 H109       33.2763  -47.6986  -54.8554 H         1 UNK         0.0775 
    110 H110       34.7981  -44.5974  -56.2305 H         1 UNK         0.0840 
    111 H111       34.4889  -44.5996  -57.9481 H         1 UNK         0.0840 
    112 H112       32.8235  -49.5807  -56.0442 H         1 UNK         0.2987 
    113 H113       30.7849  -52.3949  -56.6989 H         1 UNK         0.0785 
    114 H114       31.8864  -51.9410  -58.8524 H         1 UNK         0.0798 
    115 H115       32.8378  -53.0914  -57.9269 H         1 UNK         0.0798 
    116 H116       33.3524  -51.4094  -58.0484 H         1 UNK         0.0798 
    117 H117       31.8718  -52.6368  -54.8116 H         1 UNK         0.3079 
    118 H118       33.1038  -52.3630  -53.0669 H         1 UNK         0.0794 
    119 H119       35.3766  -53.2435  -52.5836 H         1 UNK         0.0786 
    120 H120       36.0036  -52.5142  -54.0629 H         1 UNK         0.0786 
    121 H121       34.8318  -53.8218  -54.1492 H         1 UNK         0.0786 
    122 H122       35.3105  -50.7117  -52.4618 H         1 UNK         0.3032 
    123 H123       34.4882  -48.8287  -50.8154 H         1 UNK         0.1094 
    124 H124       35.8854  -47.1063  -51.9869 H         1 UNK         0.0794 
    125 H125       36.1566  -48.6537  -52.7452 H         1 UNK         0.0794 
    126 H126       35.1155  -47.4744  -53.5234 H         1 UNK         0.0794 
    127 H127       32.2548  -47.7600  -52.0729 H         1 UNK         0.3016 
@<TRIPOS>BOND
     1    1    2 1    
     2    1   67 1    
     3    1   68 1    
     4    1   69 1    
     5    2    3 2    
     6    2    4 am   BACKBONE|DICT|INTERRES
     7    4    5 1    
     8    4   70 1    
     9    5    6 1    
    10    5   65 1    
    11    5   71 1    
    12    6    7 1    
    13    6   72 1    
    14    6   73 1    
    15    7    8 1    
    16    8    9 1    
    17    8   74 1    
    18    8   75 1    
    19    9   10 ar   
    20    9   14 ar   
    21   10   11 ar   
    22   10   76 1    
    23   11   12 ar   
    24   11   48 1    
    25   12   13 ar   
    26   12   77 1    
    27   13   14 ar   
    28   13   15 1    
    29   14   78 1    
    30   15   16 1    
    31   15   79 1    
    32   15   80 1    
    33   16   17 1    
    34   17   18 1    
    35   17   81 1    
    36   17   82 1    
    37   18   19 1    
    38   18   22 1    
    39   18   83 1    
    40   19   20 am   BACKBONE|DICT|INTERRES
    41   19   21 2    
    42   20   84 1    
    43   20   85 1    
    44   22   23 am   BACKBONE|DICT|INTERRES
    45   22   86 1    
    46   23   24 2    
    47   23   25 1    
    48   25   26 1    
    49   25   27 1    
    50   25   87 1    
    51   26   88 1    
    52   26   89 1    
    53   26   90 1    
    54   27   28 am   BACKBONE|DICT|INTERRES
    55   27   91 1    
    56   28   29 2    
    57   28   30 1    
    58   30   31 1    
    59   30   32 1    
    60   30   92 1    
    61   31   93 1    
    62   31   94 1    
    63   31   95 1    
    64   32   33 am   BACKBONE|DICT|INTERRES
    65   32   96 1    
    66   33   34 2    
    67   33   35 1    
    68   35   36 1    
    69   35   37 1    
    70   35   97 1    
    71   36   98 1    
    72   36   99 1    
    73   36  100 1    
    74   37   38 am   BACKBONE|DICT|INTERRES
    75   37  101 1    
    76   38   39 2    
    77   38   40 1    
    78   40   41 1    
    79   40   42 1    
    80   40  102 1    
    81   41  103 1    
    82   41  104 1    
    83   41  105 1    
    84   42   43 am   BACKBONE|DICT|INTERRES
    85   42  106 1    
    86   43   44 2    
    87   43   45 1    
    88   45   46 1    
    89   45   49 1    
    90   45  107 1    
    91   46   47 1    
    92   46  108 1    
    93   46  109 1    
    94   47   48 1    
    95   48  110 1    
    96   48  111 1    
    97   49   50 am   BACKBONE|DICT|INTERRES
    98   49  112 1    
    99   50   51 2    
   100   50   52 1    
   101   52   53 1    
   102   52   54 1    
   103   52  113 1    
   104   53  114 1    
   105   53  115 1    
   106   53  116 1    
   107   54   55 am   BACKBONE|DICT|INTERRES
   108   54  117 1    
   109   55   56 2    
   110   55   57 1    
   111   57   58 1    
   112   57   59 1    
   113   57  118 1    
   114   58  119 1    
   115   58  120 1    
   116   58  121 1    
   117   59   60 am   BACKBONE|DICT|INTERRES
   118   59  122 1    
   119   60   61 2    
   120   60   62 1    
   121   62   63 1    
   122   62   64 1    
   123   62  123 1    
   124   63  124 1    
   125   63  125 1    
   126   63  126 1    
   127   64   65 am   BACKBONE|DICT|INTERRES
   128   64  127 1    
   129   65   66 2    
@<TRIPOS>SUBSTRUCTURE
     1 UNK         1 GROUP             0       ****    0 ROOT    
