@<TRIPOS>MOLECULE
3R134
127   129    1
SMALL
USER_CHARGES


@<TRIPOS>ATOM
      1 CA         33.0690  -46.3472  -50.7275 C.3       0 UNK        -0.1968 
      2 C          34.3405  -45.9613  -51.4696 C.2       0 UNK         0.4852 
      3 O          35.1311  -45.1675  -50.9569 O.2       0 UNK        -0.5359 
      4 N          34.5281  -46.5171  -52.6705 N.am      1 UNK        -0.4300 
      5 CA         35.6906  -46.3193  -53.5399 C.3       1 UNK         0.0863 
      6 C6         35.2906  -45.7733  -54.9445 C.3       11 UNK        -0.0953 
      7 S7         34.2093  -44.3053  -54.8773 S.3       11 UNK        -0.2369 
      8 C8         32.6100  -45.1076  -55.2125 C.3       11 UNK         0.0226 
      9 C9         31.4336  -44.2593  -54.7639 C.ar      11 UNK        -0.0699 
     10 C10        31.1704  -44.1011  -53.4013 C.ar      11 UNK        -0.0804 
     11 C11        30.0398  -43.4012  -52.9710 C.ar      11 UNK        -0.0871 
     12 C12        29.1757  -42.8440  -53.9187 C.ar      11 UNK        -0.1008 
     13 C13        29.4373  -42.9855  -55.2851 C.ar      11 UNK        -0.0735 
     14 C14        30.5725  -43.6859  -55.7024 C.ar      11 UNK        -0.0945 
     15 C15        28.4773  -42.4128  -56.3134 C.3       11 UNK         0.0169 
     16 S16        27.1851  -43.6246  -56.7112 S.3       11 UNK        -0.2669 
     17 C17        26.2738  -42.7352  -58.0156 C.3       11 UNK        -0.0850 
     18 CA         25.2353  -43.6465  -58.7321 C.3       10 UNK         0.0855 
     19 C          24.3004  -42.8524  -59.6961 C.2       10 UNK         0.5543 
     20 N          23.8111  -43.4474  -60.7773 N.am      10 UNK        -0.7343 
     21 O          23.9848  -41.6909  -59.4480 O.2       10 UNK        -0.5027 
     22 N          25.8396  -44.8612  -59.3126 N.am      10 UNK        -0.4495 
     23 C          26.7241  -44.9144  -60.3153 C.2       10 UNK         0.4903 
     24 O          27.1652  -43.9245  -60.9017 O.2       10 UNK        -0.4860 
     25 CA         27.1992  -46.3239  -60.7167 C.3       9 UNK         0.0227 
     26 CB         27.8970  -46.3397  -62.0900 C.3       9 UNK        -0.1964 
     27 N          28.1043  -46.8965  -59.7177 N.am      9 UNK        -0.4231 
     28 C          27.7369  -47.4032  -58.5334 C.2       9 UNK         0.5014 
     29 O          26.5688  -47.4344  -58.1343 O.2       9 UNK        -0.5270 
     30 CA         28.8819  -47.9397  -57.6527 C.3       8 UNK         0.0284 
     31 CB         29.5483  -46.7927  -56.8762 C.3       8 UNK        -0.1977 
     32 N          28.4428  -48.9530  -56.6938 N.am      8 UNK        -0.4342 
     33 C          27.9170  -50.1481  -56.9932 C.2       8 UNK         0.5039 
     34 O          27.8016  -50.5828  -58.1405 O.2       8 UNK        -0.5547 
     35 CA         27.4485  -51.0137  -55.8122 C.3       7 UNK         0.0281 
     36 CB         28.5834  -51.9327  -55.3303 C.3       7 UNK        -0.1963 
     37 N          26.9784  -50.1989  -54.6888 N.am      7 UNK        -0.4444 
     38 C          25.7120  -49.7956  -54.5173 C.2       7 UNK         0.5104 
     39 O          24.7897  -50.0998  -55.2746 O.2       7 UNK        -0.5100 
     40 CA         25.4035  -48.9310  -53.2792 C.3       6 UNK         0.0396 
     41 CB         24.7942  -49.7976  -52.1651 C.3       6 UNK        -0.1801 
     42 N          26.5769  -48.2321  -52.7488 N.am      6 UNK        -0.4747 
     43 C          27.0951  -47.1085  -53.2675 C.2       6 UNK         0.5012 
     44 O          26.6028  -46.5088  -54.2214 O.2       6 UNK        -0.5003 
     45 CA         28.3945  -46.5790  -52.6207 C.3       5 UNK         0.0782 
     46 C46        28.0524  -45.5382  -51.5229 C.3       11 UNK        -0.0868 
     47 S47        29.5260  -44.8780  -50.6702 S.3       11 UNK        -0.2515 
     48 C48        29.7469  -43.2619  -51.4836 C.3       11 UNK         0.0199 
     49 N          29.2724  -47.6486  -52.1175 N.am      5 UNK        -0.4607 
     50 C          29.7822  -48.6424  -52.8550 C.2       4 UNK         0.5031 
     51 O          29.5011  -48.8234  -54.0405 O.2       4 UNK        -0.5119 
     52 CA         30.6893  -49.6454  -52.1228 C.3       4 UNK         0.0263 
     53 CB         29.8310  -50.6868  -51.3854 C.3       4 UNK        -0.1967 
     54 N          31.5994  -50.3459  -53.0338 N.am      4 UNK        -0.4237 
     55 C          32.5955  -49.7662  -53.7141 C.2       3 UNK         0.4908 
     56 O          32.8931  -48.5711  -53.6167 O.2       3 UNK        -0.5102 
     57 CA         33.3869  -50.6731  -54.6677 C.3       3 UNK         0.0241 
     58 CB         32.6153  -50.8819  -55.9825 C.3       3 UNK        -0.1971 
     59 N          34.6585  -50.0215  -54.9618 N.am      3 UNK        -0.4139 
     60 C          35.8808  -50.5582  -54.8605 C.2       2 UNK         0.5016 
     61 O          36.0937  -51.7490  -54.6293 O.2       2 UNK        -0.5319 
     62 CA         37.0740  -49.5932  -55.0336 C.3       2 UNK         0.0286 
     63 CB         37.6760  -49.7269  -56.4420 C.3       2 UNK        -0.1963 
     64 N          36.6992  -48.1919  -54.8011 N.am      2 UNK        -0.4790 
     65 C          36.4248  -47.6768  -53.5924 C.2       1 UNK         0.5024 
     66 O          36.6807  -48.2695  -52.5416 O.2       1 UNK        -0.4888 
     67 H67        33.2969  -47.0592  -49.9350 H         1 UNK         0.0892 
     68 H68        32.6133  -45.4665  -50.2756 H         1 UNK         0.0892 
     69 H69        32.3352  -46.7982  -51.3953 H         1 UNK         0.0892 
     70 H70        33.8654  -47.2199  -52.9994 H         1 UNK         0.3107 
     71 H71        36.3842  -45.6077  -53.0876 H         1 UNK         0.0773 
     72 H72        34.7831  -46.5358  -55.5383 H         1 UNK         0.0680 
     73 H73        36.1847  -45.4937  -55.5046 H         1 UNK         0.0680 
     74 H74        32.5572  -46.0641  -54.6911 H         1 UNK         0.0650 
     75 H75        32.5433  -45.3363  -56.2773 H         1 UNK         0.0650 
     76 H76        31.8347  -44.5456  -52.6742 H         1 UNK         0.1397 
     77 H77        28.2905  -42.3119  -53.5975 H         1 UNK         0.1363 
     78 H78        30.7658  -43.8108  -56.7588 H         1 UNK         0.1355 
     79 H79        28.0178  -41.4981  -55.9356 H         1 UNK         0.0707 
     80 H80        29.0170  -42.1404  -57.2219 H         1 UNK         0.0707 
     81 H81        25.7801  -41.8814  -57.5479 H         1 UNK         0.1034 
     82 H82        26.9812  -42.3217  -58.7362 H         1 UNK         0.1034 
     83 H83        24.5597  -44.0163  -57.9600 H         1 UNK         0.0482 
     84 H84        24.0510  -44.4036  -60.9844 H         1 UNK         0.3460 
     85 H85        23.1988  -42.9337  -61.3913 H         1 UNK         0.3460 
     86 H86        25.6144  -45.7342  -58.8471 H         1 UNK         0.2989 
     87 H87        26.3150  -46.9609  -60.7912 H         1 UNK         0.0559 
     88 H88        28.8129  -45.7472  -62.0885 H         1 UNK         0.0848 
     89 H89        27.2456  -45.9289  -62.8627 H         1 UNK         0.0848 
     90 H90        28.1545  -47.3547  -62.3934 H         1 UNK         0.0848 
     91 H91        29.0880  -46.8742  -59.9454 H         1 UNK         0.3144 
     92 H92        29.6270  -48.4053  -58.3008 H         1 UNK         0.0727 
     93 H93        29.9337  -46.0305  -57.5538 H         1 UNK         0.0790 
     94 H94        30.3868  -47.1498  -56.2774 H         1 UNK         0.0790 
     95 H95        28.8432  -46.3026  -56.2025 H         1 UNK         0.0790 
     96 H96        28.5761  -48.7277  -55.7127 H         1 UNK         0.3215 
     97 H97        26.6331  -51.6466  -56.1698 H         1 UNK         0.0863 
     98 H98        29.4277  -51.3628  -54.9436 H         1 UNK         0.0808 
     99 H99        28.9548  -52.5545  -56.1460 H         1 UNK         0.0808 
    100 H100       28.2419  -52.6029  -54.5413 H         1 UNK         0.0808 
    101 H101       27.6900  -49.8405  -54.0645 H         1 UNK         0.3118 
    102 H102       24.6586  -48.1888  -53.5744 H         1 UNK         0.0546 
    103 H103       25.4906  -50.5628  -51.8199 H         1 UNK         0.0828 
    104 H104       23.8969  -50.3096  -52.5160 H         1 UNK         0.0828 
    105 H105       24.5036  -49.1936  -51.3055 H         1 UNK         0.0828 
    106 H106       27.0390  -48.6495  -51.9537 H         1 UNK         0.3005 
    107 H107       28.9447  -46.0685  -53.4147 H         1 UNK         0.1257 
    108 H108       27.4092  -45.9851  -50.7622 H         1 UNK         0.0775 
    109 H109       27.4835  -44.7083  -51.9472 H         1 UNK         0.0775 
    110 H110       28.8592  -42.6508  -51.3123 H         1 UNK         0.0840 
    111 H111       30.5763  -42.7377  -51.0070 H         1 UNK         0.0840 
    112 H112       29.5361  -47.5698  -51.1459 H         1 UNK         0.2987 
    113 H113       31.2928  -49.1013  -51.3936 H         1 UNK         0.0785 
    114 H114       29.1665  -50.2118  -50.6625 H         1 UNK         0.0798 
    115 H115       30.4518  -51.3916  -50.8317 H         1 UNK         0.0798 
    116 H116       29.2078  -51.2591  -52.0742 H         1 UNK         0.0798 
    117 H117       31.4107  -51.3246  -53.1915 H         1 UNK         0.3079 
    118 H118       33.5556  -51.6352  -54.1792 H         1 UNK         0.0794 
    119 H119       31.6825  -51.4189  -55.8112 H         1 UNK         0.0786 
    120 H120       33.1977  -51.4681  -56.6935 H         1 UNK         0.0786 
    121 H121       32.3627  -49.9330  -56.4585 H         1 UNK         0.0786 
    122 H122       34.5895  -49.0216  -55.0836 H         1 UNK         0.3032 
    123 H123       37.8354  -49.8797  -54.3042 H         1 UNK         0.1094 
    124 H124       37.9909  -50.7535  -56.6347 H         1 UNK         0.0794 
    125 H125       36.9583  -49.4558  -57.2174 H         1 UNK         0.0794 
    126 H126       38.5552  -49.0932  -56.5598 H         1 UNK         0.0794 
    127 H127       36.5085  -47.6346  -55.6218 H         1 UNK         0.3016 
@<TRIPOS>BOND
     1    1    2 1    
     2    1   67 1    
     3    1   68 1    
     4    1   69 1    
     5    2    3 2    
     6    2    4 am   BACKBONE|DICT|INTERRES
     7    4    5 1    
     8    4   70 1    
     9    5    6 1    
    10    5   65 1    
    11    5   71 1    
    12    6    7 1    
    13    6   72 1    
    14    6   73 1    
    15    7    8 1    
    16    8    9 1    
    17    8   74 1    
    18    8   75 1    
    19    9   10 ar   
    20    9   14 ar   
    21   10   11 ar   
    22   10   76 1    
    23   11   12 ar   
    24   11   48 1    
    25   12   13 ar   
    26   12   77 1    
    27   13   14 ar   
    28   13   15 1    
    29   14   78 1    
    30   15   16 1    
    31   15   79 1    
    32   15   80 1    
    33   16   17 1    
    34   17   18 1    
    35   17   81 1    
    36   17   82 1    
    37   18   19 1    
    38   18   22 1    
    39   18   83 1    
    40   19   20 am   BACKBONE|DICT|INTERRES
    41   19   21 2    
    42   20   84 1    
    43   20   85 1    
    44   22   23 am   BACKBONE|DICT|INTERRES
    45   22   86 1    
    46   23   24 2    
    47   23   25 1    
    48   25   26 1    
    49   25   27 1    
    50   25   87 1    
    51   26   88 1    
    52   26   89 1    
    53   26   90 1    
    54   27   28 am   BACKBONE|DICT|INTERRES
    55   27   91 1    
    56   28   29 2    
    57   28   30 1    
    58   30   31 1    
    59   30   32 1    
    60   30   92 1    
    61   31   93 1    
    62   31   94 1    
    63   31   95 1    
    64   32   33 am   BACKBONE|DICT|INTERRES
    65   32   96 1    
    66   33   34 2    
    67   33   35 1    
    68   35   36 1    
    69   35   37 1    
    70   35   97 1    
    71   36   98 1    
    72   36   99 1    
    73   36  100 1    
    74   37   38 am   BACKBONE|DICT|INTERRES
    75   37  101 1    
    76   38   39 2    
    77   38   40 1    
    78   40   41 1    
    79   40   42 1    
    80   40  102 1    
    81   41  103 1    
    82   41  104 1    
    83   41  105 1    
    84   42   43 am   BACKBONE|DICT|INTERRES
    85   42  106 1    
    86   43   44 2    
    87   43   45 1    
    88   45   46 1    
    89   45   49 1    
    90   45  107 1    
    91   46   47 1    
    92   46  108 1    
    93   46  109 1    
    94   47   48 1    
    95   48  110 1    
    96   48  111 1    
    97   49   50 am   BACKBONE|DICT|INTERRES
    98   49  112 1    
    99   50   51 2    
   100   50   52 1    
   101   52   53 1    
   102   52   54 1    
   103   52  113 1    
   104   53  114 1    
   105   53  115 1    
   106   53  116 1    
   107   54   55 am   BACKBONE|DICT|INTERRES
   108   54  117 1    
   109   55   56 2    
   110   55   57 1    
   111   57   58 1    
   112   57   59 1    
   113   57  118 1    
   114   58  119 1    
   115   58  120 1    
   116   58  121 1    
   117   59   60 am   BACKBONE|DICT|INTERRES
   118   59  122 1    
   119   60   61 2    
   120   60   62 1    
   121   62   63 1    
   122   62   64 1    
   123   62  123 1    
   124   63  124 1    
   125   63  125 1    
   126   63  126 1    
   127   64   65 am   BACKBONE|DICT|INTERRES
   128   64  127 1    
   129   65   66 2    
@<TRIPOS>SUBSTRUCTURE
     1 UNK         1 GROUP             0       ****    0 ROOT    
