@<TRIPOS>MOLECULE
3R134
127   129    1
SMALL
USER_CHARGES


@<TRIPOS>ATOM
      1 CA         38.6068  -46.5750  -52.5472 C.3       0 UNK        -0.1968 
      2 C          37.9022  -46.3956  -53.8839 C.2       0 UNK         0.4852 
      3 O          38.4097  -46.8551  -54.9080 O.2       0 UNK        -0.5359 
      4 N          36.7419  -45.7263  -53.8796 N.am      1 UNK        -0.4300 
      5 CA         35.8871  -45.4931  -55.0501 C.3       1 UNK         0.0863 
      6 C6         34.7951  -44.4242  -54.7685 C.3       11 UNK        -0.0953 
      7 S7         33.8501  -44.7079  -53.2261 S.3       11 UNK        -0.2369 
      8 C8         32.3168  -45.4530  -53.8578 C.3       11 UNK         0.0226 
      9 C9         31.2068  -44.4256  -53.9969 C.ar      11 UNK        -0.0699 
     10 C10        30.3102  -44.2248  -52.9453 C.ar      11 UNK        -0.0804 
     11 C11        29.2258  -43.3524  -53.0897 C.ar      11 UNK        -0.0871 
     12 C12        29.0835  -42.6273  -54.2772 C.ar      11 UNK        -0.1008 
     13 C13        30.0011  -42.7875  -55.3197 C.ar      11 UNK        -0.0735 
     14 C14        31.0516  -43.6996  -55.1804 C.ar      11 UNK        -0.0945 
     15 C15        29.8776  -41.9638  -56.5913 C.3       11 UNK         0.0169 
     16 S16        28.9181  -42.8308  -57.8686 S.3       11 UNK        -0.2669 
     17 C17        27.1955  -42.3414  -57.4828 C.3       11 UNK        -0.0850 
     18 CA         26.2632  -43.5316  -57.1246 C.3       10 UNK         0.0855 
     19 C          24.8015  -43.0285  -56.9695 C.2       10 UNK         0.5543 
     20 N          24.3239  -42.8685  -55.7429 N.am      10 UNK        -0.7343 
     21 O          24.1231  -42.7291  -57.9503 O.2       10 UNK        -0.5027 
     22 N          26.4405  -44.6256  -58.0890 N.am      10 UNK        -0.4495 
     23 C          25.7001  -45.7257  -58.2816 C.2       10 UNK         0.4903 
     24 O          24.6316  -45.9799  -57.7266 O.2       10 UNK        -0.4860 
     25 CA         26.3406  -46.7631  -59.2103 C.3       9 UNK         0.0227 
     26 CB         26.3736  -46.2250  -60.6585 C.3       9 UNK        -0.1964 
     27 N          27.6550  -47.0808  -58.6340 N.am      9 UNK        -0.4231 
     28 C          28.8315  -47.3790  -59.2028 C.2       9 UNK         0.5014 
     29 O          29.0447  -47.4353  -60.4139 O.2       9 UNK        -0.5270 
     30 CA         29.9766  -47.6900  -58.2222 C.3       8 UNK         0.0284 
     31 CB         30.4239  -46.4241  -57.4680 C.3       8 UNK        -0.1977 
     32 N          29.5864  -48.7360  -57.2731 N.am      8 UNK        -0.4342 
     33 C          29.4439  -50.0294  -57.6024 C.2       8 UNK         0.5039 
     34 O          29.7888  -50.5044  -58.6850 O.2       8 UNK        -0.5547 
     35 CA         28.7722  -50.9483  -56.5681 C.3       7 UNK         0.0281 
     36 CB         29.8082  -51.5732  -55.6188 C.3       7 UNK        -0.1963 
     37 N          27.7384  -50.2443  -55.8043 N.am      7 UNK        -0.4444 
     38 C          26.5272  -49.9351  -56.2938 C.2       7 UNK         0.5104 
     39 O          26.1326  -50.2814  -57.4072 O.2       7 UNK        -0.5100 
     40 CA         25.5914  -49.0958  -55.4029 C.3       6 UNK         0.0396 
     41 CB         24.5777  -50.0038  -54.6890 C.3       6 UNK        -0.1801 
     42 N          26.2891  -48.2791  -54.4061 N.am      6 UNK        -0.4747 
     43 C          27.0888  -47.2411  -54.6913 C.2       6 UNK         0.5012 
     44 O          27.3450  -46.8682  -55.8339 O.2       6 UNK        -0.5003 
     45 CA         27.7952  -46.5733  -53.4988 C.3       5 UNK         0.0782 
     46 C46        26.8545  -45.5593  -52.7965 C.3       11 UNK        -0.0868 
     47 S47        27.6005  -44.7873  -51.3187 S.3       11 UNK        -0.2515 
     48 C48        28.2046  -43.1916  -51.9692 C.3       11 UNK         0.0199 
     49 N          28.3657  -47.5694  -52.5807 N.am      5 UNK        -0.4607 
     50 C          29.2888  -48.4737  -52.9296 C.2       4 UNK         0.5031 
     51 O          29.7617  -48.5640  -54.0666 O.2       4 UNK        -0.5119 
     52 CA         29.7046  -49.4839  -51.8561 C.3       4 UNK         0.0263 
     53 CB         28.5801  -50.5118  -51.6168 C.3       4 UNK        -0.1967 
     54 N          30.9124  -50.1574  -52.3203 N.am      4 UNK        -0.4237 
     55 C          31.7495  -50.9008  -51.5883 C.2       3 UNK         0.4908 
     56 O          31.5969  -51.1206  -50.3860 O.2       3 UNK        -0.5102 
     57 CA         32.9617  -51.5175  -52.3158 C.3       3 UNK         0.0241 
     58 CB         32.6748  -52.9859  -52.6721 C.3       3 UNK        -0.1971 
     59 N          33.3633  -50.8010  -53.5329 N.am      3 UNK        -0.4139 
     60 C          33.8848  -49.5672  -53.5503 C.2       2 UNK         0.5016 
     61 O          34.1113  -48.9055  -52.5320 O.2       2 UNK        -0.5319 
     62 CA         34.1813  -48.9640  -54.9322 C.3       2 UNK         0.0286 
     63 CB         32.8865  -48.8399  -55.7659 C.3       2 UNK        -0.1963 
     64 N          34.7977  -47.6589  -54.7071 N.am      2 UNK        -0.4790 
     65 C          35.2853  -46.8007  -55.6100 C.2       1 UNK         0.5024 
     66 O          35.2902  -47.0039  -56.8246 O.2       1 UNK        -0.4888 
     67 H67        38.7106  -47.6351  -52.3178 H         1 UNK         0.0892 
     68 H68        39.6029  -46.1349  -52.5857 H         1 UNK         0.0892 
     69 H69        38.0598  -46.1038  -51.7308 H         1 UNK         0.0892 
     70 H70        36.3745  -45.3713  -53.0077 H         1 UNK         0.3107 
     71 H71        36.5310  -45.0931  -55.8366 H         1 UNK         0.0773 
     72 H72        34.1151  -44.3243  -55.6162 H         1 UNK         0.0680 
     73 H73        35.2738  -43.4488  -54.6709 H         1 UNK         0.0680 
     74 H74        32.0068  -46.2479  -53.1773 H         1 UNK         0.0650 
     75 H75        32.4973  -45.9363  -54.8173 H         1 UNK         0.0650 
     76 H76        30.4307  -44.7839  -52.0273 H         1 UNK         0.1397 
     77 H77        28.2621  -41.9334  -54.3908 H         1 UNK         0.1363 
     78 H78        31.7477  -43.8434  -55.9949 H         1 UNK         0.1355 
     79 H79        29.4379  -40.9878  -56.3807 H         1 UNK         0.0707 
     80 H80        30.8732  -41.7605  -56.9886 H         1 UNK         0.0707 
     81 H81        27.1908  -41.6087  -56.6743 H         1 UNK         0.1034 
     82 H82        26.8123  -41.8145  -58.3593 H         1 UNK         0.1034 
     83 H83        26.5901  -43.9341  -56.1639 H         1 UNK         0.0482 
     84 H84        24.8764  -43.0933  -54.9314 H         1 UNK         0.3460 
     85 H85        23.3836  -42.5239  -55.6271 H         1 UNK         0.3460 
     86 H86        27.3057  -44.5658  -58.6058 H         1 UNK         0.2989 
     87 H87        25.7377  -47.6722  -59.1811 H         1 UNK         0.0559 
     88 H88        27.0736  -45.3971  -60.7759 H         1 UNK         0.0848 
     89 H89        25.3898  -45.8659  -60.9639 H         1 UNK         0.0848 
     90 H90        26.6543  -47.0055  -61.3655 H         1 UNK         0.0848 
     91 H91        27.6438  -47.0472  -57.6134 H         1 UNK         0.3144 
     92 H92        30.8287  -48.0511  -58.8024 H         1 UNK         0.0727 
     93 H93        31.2996  -46.6175  -56.8513 H         1 UNK         0.0790 
     94 H94        29.6433  -46.0273  -56.8186 H         1 UNK         0.0790 
     95 H95        30.6943  -45.6311  -58.1665 H         1 UNK         0.0790 
     96 H96        29.3099  -48.4397  -56.3449 H         1 UNK         0.3215 
     97 H97        28.2930  -51.7636  -57.1151 H         1 UNK         0.0863 
     98 H98        29.3344  -52.2139  -54.8750 H         1 UNK         0.0808 
     99 H99        30.3886  -50.8184  -55.0934 H         1 UNK         0.0808 
    100 H100       30.5148  -52.1908  -56.1747 H         1 UNK         0.0808 
    101 H101       28.0012  -49.8852  -54.8979 H         1 UNK         0.3118 
    102 H102       25.0398  -48.4191  -56.0594 H         1 UNK         0.0546 
    103 H103       25.0668  -50.6931  -53.9995 H         1 UNK         0.0828 
    104 H104       24.0187  -50.6049  -55.4077 H         1 UNK         0.0828 
    105 H105       23.8502  -49.4208  -54.1242 H         1 UNK         0.0828 
    106 H106       26.1567  -48.5311  -53.4371 H         1 UNK         0.3005 
    107 H107       28.6315  -46.0221  -53.9297 H         1 UNK         0.1257 
    108 H108       25.9339  -46.0504  -52.4752 H         1 UNK         0.0775 
    109 H109       26.5507  -44.7760  -53.4936 H         1 UNK         0.0775 
    110 H110       27.3482  -42.6037  -52.3034 H         1 UNK         0.0840 
    111 H111       28.6639  -42.6306  -51.1543 H         1 UNK         0.0840 
    112 H112       28.0292  -47.5412  -51.6288 H         1 UNK         0.2987 
    113 H113       29.9271  -48.9442  -50.9333 H         1 UNK         0.0785 
    114 H114       28.8539  -51.2306  -50.8445 H         1 UNK         0.0798 
    115 H115       28.3473  -51.0724  -52.5232 H         1 UNK         0.0798 
    116 H116       27.6613  -50.0266  -51.2858 H         1 UNK         0.0798 
    117 H117       31.1284  -49.9688  -53.2907 H         1 UNK         0.3079 
    118 H118       33.8030  -51.4924  -51.6198 H         1 UNK         0.0794 
    119 H119       32.4024  -53.5573  -51.7835 H         1 UNK         0.0786 
    120 H120       33.5501  -53.4681  -53.1078 H         1 UNK         0.0786 
    121 H121       31.8512  -53.0763  -53.3818 H         1 UNK         0.0786 
    122 H122       33.2276  -51.2868  -54.4078 H         1 UNK         0.3032 
    123 H123       34.8999  -49.6038  -55.4484 H         1 UNK         0.1094 
    124 H124       32.1258  -48.2610  -55.2432 H         1 UNK         0.0794 
    125 H125       33.0629  -48.3657  -56.7305 H         1 UNK         0.0794 
    126 H126       32.4579  -49.8180  -55.9826 H         1 UNK         0.0794 
    127 H127       34.8504  -47.4192  -53.7225 H         1 UNK         0.3016 
@<TRIPOS>BOND
     1    1    2 1    
     2    1   67 1    
     3    1   68 1    
     4    1   69 1    
     5    2    3 2    
     6    2    4 am   BACKBONE|DICT|INTERRES
     7    4    5 1    
     8    4   70 1    
     9    5    6 1    
    10    5   65 1    
    11    5   71 1    
    12    6    7 1    
    13    6   72 1    
    14    6   73 1    
    15    7    8 1    
    16    8    9 1    
    17    8   74 1    
    18    8   75 1    
    19    9   10 ar   
    20    9   14 ar   
    21   10   11 ar   
    22   10   76 1    
    23   11   12 ar   
    24   11   48 1    
    25   12   13 ar   
    26   12   77 1    
    27   13   14 ar   
    28   13   15 1    
    29   14   78 1    
    30   15   16 1    
    31   15   79 1    
    32   15   80 1    
    33   16   17 1    
    34   17   18 1    
    35   17   81 1    
    36   17   82 1    
    37   18   19 1    
    38   18   22 1    
    39   18   83 1    
    40   19   20 am   BACKBONE|DICT|INTERRES
    41   19   21 2    
    42   20   84 1    
    43   20   85 1    
    44   22   23 am   BACKBONE|DICT|INTERRES
    45   22   86 1    
    46   23   24 2    
    47   23   25 1    
    48   25   26 1    
    49   25   27 1    
    50   25   87 1    
    51   26   88 1    
    52   26   89 1    
    53   26   90 1    
    54   27   28 am   BACKBONE|DICT|INTERRES
    55   27   91 1    
    56   28   29 2    
    57   28   30 1    
    58   30   31 1    
    59   30   32 1    
    60   30   92 1    
    61   31   93 1    
    62   31   94 1    
    63   31   95 1    
    64   32   33 am   BACKBONE|DICT|INTERRES
    65   32   96 1    
    66   33   34 2    
    67   33   35 1    
    68   35   36 1    
    69   35   37 1    
    70   35   97 1    
    71   36   98 1    
    72   36   99 1    
    73   36  100 1    
    74   37   38 am   BACKBONE|DICT|INTERRES
    75   37  101 1    
    76   38   39 2    
    77   38   40 1    
    78   40   41 1    
    79   40   42 1    
    80   40  102 1    
    81   41  103 1    
    82   41  104 1    
    83   41  105 1    
    84   42   43 am   BACKBONE|DICT|INTERRES
    85   42  106 1    
    86   43   44 2    
    87   43   45 1    
    88   45   46 1    
    89   45   49 1    
    90   45  107 1    
    91   46   47 1    
    92   46  108 1    
    93   46  109 1    
    94   47   48 1    
    95   48  110 1    
    96   48  111 1    
    97   49   50 am   BACKBONE|DICT|INTERRES
    98   49  112 1    
    99   50   51 2    
   100   50   52 1    
   101   52   53 1    
   102   52   54 1    
   103   52  113 1    
   104   53  114 1    
   105   53  115 1    
   106   53  116 1    
   107   54   55 am   BACKBONE|DICT|INTERRES
   108   54  117 1    
   109   55   56 2    
   110   55   57 1    
   111   57   58 1    
   112   57   59 1    
   113   57  118 1    
   114   58  119 1    
   115   58  120 1    
   116   58  121 1    
   117   59   60 am   BACKBONE|DICT|INTERRES
   118   59  122 1    
   119   60   61 2    
   120   60   62 1    
   121   62   63 1    
   122   62   64 1    
   123   62  123 1    
   124   63  124 1    
   125   63  125 1    
   126   63  126 1    
   127   64   65 am   BACKBONE|DICT|INTERRES
   128   64  127 1    
   129   65   66 2    
@<TRIPOS>SUBSTRUCTURE
     1 UNK         1 GROUP             0       ****    0 ROOT    
