@<TRIPOS>MOLECULE
3R134
127   129    1
SMALL
USER_CHARGES


@<TRIPOS>ATOM
      1 CA         36.2328  -43.9568  -49.5910 C.3       0 UNK        -0.1968 
      2 C          35.9844  -44.3876  -51.0292 C.2       0 UNK         0.4852 
      3 O          36.0826  -43.5637  -51.9399 O.2       0 UNK        -0.5359 
      4 N          35.6647  -45.6685  -51.2396 N.am      1 UNK        -0.4300 
      5 CA         35.4117  -46.2759  -52.5426 C.3       1 UNK         0.0863 
      6 C6         33.9620  -46.0179  -53.0252 C.3       11 UNK        -0.0953 
      7 S7         33.7345  -46.3328  -54.8091 S.3       11 UNK        -0.2369 
      8 C8         33.6204  -44.6366  -55.4701 C.3       11 UNK         0.0226 
      9 C9         32.1841  -44.1286  -55.4929 C.ar      11 UNK        -0.0699 
     10 C10        31.5831  -43.6420  -54.3281 C.ar      11 UNK        -0.0804 
     11 C11        30.2552  -43.2098  -54.3401 C.ar      11 UNK        -0.0871 
     12 C12        29.5355  -43.2314  -55.5359 C.ar      11 UNK        -0.1008 
     13 C13        30.1315  -43.6822  -56.7187 C.ar      11 UNK        -0.0735 
     14 C14        31.4532  -44.1401  -56.6858 C.ar      11 UNK        -0.0945 
     15 C15        29.3423  -43.7282  -58.0221 C.3       11 UNK         0.0169 
     16 S16        28.3523  -42.2229  -58.3134 S.3       11 UNK        -0.2669 
     17 C17        26.7996  -42.9812  -58.8890 C.3       11 UNK        -0.0850 
     18 CA         25.9658  -43.5983  -57.7160 C.3       10 UNK         0.0855 
     19 C          24.6460  -42.8266  -57.4100 C.2       10 UNK         0.5543 
     20 N          23.5651  -43.4952  -57.0269 N.am      10 UNK        -0.7343 
     21 O          24.6071  -41.6010  -57.4850 O.2       10 UNK        -0.5027 
     22 N          25.8250  -45.0596  -57.8377 N.am      10 UNK        -0.4495 
     23 C          25.2336  -45.7088  -58.8495 C.2       10 UNK         0.4903 
     24 O          24.6845  -45.1463  -59.7986 O.2       10 UNK        -0.4860 
     25 CA         25.2794  -47.2462  -58.7859 C.3       9 UNK         0.0227 
     26 CB         24.8453  -47.9208  -60.1042 C.3       9 UNK        -0.1964 
     27 N          26.5806  -47.7605  -58.3443 N.am      9 UNK        -0.4231 
     28 C          27.7812  -47.6015  -58.9261 C.2       9 UNK         0.5014 
     29 O          27.9668  -46.9508  -59.9552 O.2       9 UNK        -0.5270 
     30 CA         28.9915  -48.2852  -58.2522 C.3       8 UNK         0.0284 
     31 CB         29.9422  -47.2439  -57.6420 C.3       8 UNK        -0.1977 
     32 N          28.6191  -49.2456  -57.2112 N.am      8 UNK        -0.4342 
     33 C          28.0377  -50.4328  -57.4331 C.2       8 UNK         0.5039 
     34 O          27.8462  -50.9075  -58.5528 O.2       8 UNK        -0.5547 
     35 CA         27.5382  -51.1902  -56.1945 C.3       7 UNK         0.0281 
     36 CB         28.6656  -52.0392  -55.5957 C.3       7 UNK        -0.1963 
     37 N          27.0066  -50.2788  -55.1758 N.am      7 UNK        -0.4444 
     38 C          25.8266  -49.6499  -55.2742 C.2       7 UNK         0.5104 
     39 O          25.0553  -49.7876  -56.2228 O.2       7 UNK        -0.5100 
     40 CA         25.4562  -48.6796  -54.1417 C.3       6 UNK         0.0396 
     41 CB         24.8547  -49.4418  -52.9505 C.3       6 UNK        -0.1801 
     42 N          26.5927  -47.8767  -53.6880 N.am      6 UNK        -0.4747 
     43 C          27.1621  -46.8904  -54.3964 C.2       6 UNK         0.5012 
     44 O          26.7857  -46.5393  -55.5161 O.2       6 UNK        -0.5003 
     45 CA         28.3637  -46.1823  -53.7412 C.3       5 UNK         0.0782 
     46 C46        27.8688  -44.9850  -52.8870 C.3       11 UNK        -0.0868 
     47 S47        29.1985  -44.1378  -51.9625 S.3       11 UNK        -0.2515 
     48 C48        29.5954  -42.7371  -53.0548 C.3       11 UNK         0.0199 
     49 N          29.2439  -47.0818  -52.9826 N.am      5 UNK        -0.4607 
     50 C          29.8848  -48.1500  -53.4725 C.2       4 UNK         0.5031 
     51 O          29.6659  -48.6321  -54.5868 O.2       4 UNK        -0.5119 
     52 CA         30.9525  -48.7605  -52.5505 C.3       4 UNK         0.0263 
     53 CB         30.3321  -49.7059  -51.5014 C.3       4 UNK        -0.1967 
     54 N          32.0345  -49.3693  -53.3381 N.am      4 UNK        -0.4237 
     55 C          32.0960  -50.5924  -53.8871 C.2       3 UNK         0.4908 
     56 O          31.3569  -51.5347  -53.6054 O.2       3 UNK        -0.5102 
     57 CA         33.1784  -50.7962  -54.9579 C.3       3 UNK         0.0241 
     58 CB         32.6850  -50.2685  -56.3164 C.3       3 UNK        -0.1971 
     59 N          34.4425  -50.1434  -54.6127 N.am      3 UNK        -0.4139 
     60 C          35.3469  -50.6516  -53.7639 C.2       2 UNK         0.5016 
     61 O          35.2245  -51.7354  -53.1922 O.2       2 UNK        -0.5319 
     62 CA         36.6043  -49.8029  -53.5125 C.3       2 UNK         0.0286 
     63 CB         37.6613  -50.0636  -54.5982 C.3       2 UNK        -0.1963 
     64 N          36.3062  -48.3689  -53.4529 N.am      2 UNK        -0.4790 
     65 C          35.7160  -47.7746  -52.4079 C.2       1 UNK         0.5024 
     66 O          35.4024  -48.3630  -51.3698 O.2       1 UNK        -0.4888 
     67 H67        36.1084  -44.7826  -48.8906 H         1 UNK         0.0892 
     68 H68        37.2464  -43.5715  -49.4843 H         1 UNK         0.0892 
     69 H69        35.5363  -43.1671  -49.3105 H         1 UNK         0.0892 
     70 H70        35.6232  -46.3260  -50.4699 H         1 UNK         0.3107 
     71 H71        36.1151  -45.8448  -53.2589 H         1 UNK         0.0773 
     72 H72        33.2470  -46.6149  -52.4596 H         1 UNK         0.0680 
     73 H73        33.6978  -44.9834  -52.8167 H         1 UNK         0.0680 
     74 H74        34.0314  -44.6353  -56.4807 H         1 UNK         0.0650 
     75 H75        34.2518  -43.9617  -54.8900 H         1 UNK         0.0650 
     76 H76        32.1346  -43.6129  -53.4007 H         1 UNK         0.1397 
     77 H77        28.5067  -42.9002  -55.5438 H         1 UNK         0.1363 
     78 H78        31.9139  -44.5138  -57.5900 H         1 UNK         0.1355 
     79 H79        30.0067  -43.8733  -58.8753 H         1 UNK         0.0707 
     80 H80        28.6915  -44.6019  -57.9879 H         1 UNK         0.0707 
     81 H81        27.0565  -43.7286  -59.6415 H         1 UNK         0.1034 
     82 H82        26.2351  -42.2255  -59.4383 H         1 UNK         0.1034 
     83 H83        26.5320  -43.4826  -56.7919 H         1 UNK         0.0482 
     84 H84        23.5892  -44.4990  -56.9498 H         1 UNK         0.3460 
     85 H85        22.7179  -42.9904  -56.8189 H         1 UNK         0.3460 
     86 H86        26.2139  -45.6063  -57.0724 H         1 UNK         0.2989 
     87 H87        24.5636  -47.5384  -58.0163 H         1 UNK         0.0559 
     88 H88        25.4914  -47.6376  -60.9358 H         1 UNK         0.0848 
     89 H89        23.8269  -47.6372  -60.3726 H         1 UNK         0.0848 
     90 H90        24.8660  -49.0073  -60.0181 H         1 UNK         0.0848 
     91 H91        26.5579  -48.2880  -57.4824 H         1 UNK         0.3144 
     92 H92        29.5330  -48.8250  -59.0317 H         1 UNK         0.0727 
     93 H93        30.8231  -47.7140  -57.2058 H         1 UNK         0.0790 
     94 H94        29.4536  -46.6660  -56.8574 H         1 UNK         0.0790 
     95 H95        30.2939  -46.5447  -58.4011 H         1 UNK         0.0790 
     96 H96        28.8167  -48.9736  -56.2496 H         1 UNK         0.3215 
     97 H97        26.7359  -51.8614  -56.5096 H         1 UNK         0.0863 
     98 H98        29.5157  -51.4175  -55.3214 H         1 UNK         0.0808 
     99 H99        29.0222  -52.7785  -56.3141 H         1 UNK         0.0808 
    100 H100       28.3379  -52.5780  -54.7066 H         1 UNK         0.0808 
    101 H101       27.6082  -50.0645  -54.3929 H         1 UNK         0.3118 
    102 H102       24.6935  -47.9981  -54.5253 H         1 UNK         0.0546 
    103 H103       24.5109  -48.7576  -52.1746 H         1 UNK         0.0828 
    104 H104       25.5737  -50.1271  -52.5001 H         1 UNK         0.0828 
    105 H105       23.9927  -50.0334  -53.2623 H         1 UNK         0.0828 
    106 H106       26.9754  -48.0914  -52.7782 H         1 UNK         0.3005 
    107 H107       28.9692  -45.7893  -54.5596 H         1 UNK         0.1257 
    108 H108       27.1364  -45.3221  -52.1507 H         1 UNK         0.0775 
    109 H109       27.3483  -44.2578  -53.5134 H         1 UNK         0.0775 
    110 H110       28.6903  -42.1644  -53.2633 H         1 UNK         0.0840 
    111 H111       30.2701  -42.0591  -52.5301 H         1 UNK         0.0840 
    112 H112       29.4807  -46.7567  -52.0560 H         1 UNK         0.2987 
    113 H113       31.4205  -47.9406  -52.0054 H         1 UNK         0.0785 
    114 H114       31.1007  -50.2074  -50.9132 H         1 UNK         0.0798 
    115 H115       29.7015  -49.1521  -50.8052 H         1 UNK         0.0798 
    116 H116       29.7035  -50.4704  -51.9591 H         1 UNK         0.0798 
    117 H117       32.7138  -48.7043  -53.6778 H         1 UNK         0.3079 
    118 H118       33.3523  -51.8702  -55.0565 H         1 UNK         0.0794 
    119 H119       31.7361  -50.7299  -56.5949 H         1 UNK         0.0786 
    120 H120       33.3979  -50.4897  -57.1109 H         1 UNK         0.0786 
    121 H121       32.5267  -49.1897  -56.2979 H         1 UNK         0.0786 
    122 H122       34.6361  -49.2514  -55.0442 H         1 UNK         0.3032 
    123 H123       37.0224  -50.1125  -52.5513 H         1 UNK         0.1094 
    124 H124       37.3130  -49.7628  -55.5871 H         1 UNK         0.0794 
    125 H125       38.5855  -49.5244  -54.3890 H         1 UNK         0.0794 
    126 H126       37.9123  -51.1241  -54.6501 H         1 UNK         0.0794 
    127 H127       36.5406  -47.8155  -54.2656 H         1 UNK         0.3016 
@<TRIPOS>BOND
     1    1    2 1    
     2    1   67 1    
     3    1   68 1    
     4    1   69 1    
     5    2    3 2    
     6    2    4 am   BACKBONE|DICT|INTERRES
     7    4    5 1    
     8    4   70 1    
     9    5    6 1    
    10    5   65 1    
    11    5   71 1    
    12    6    7 1    
    13    6   72 1    
    14    6   73 1    
    15    7    8 1    
    16    8    9 1    
    17    8   74 1    
    18    8   75 1    
    19    9   10 ar   
    20    9   14 ar   
    21   10   11 ar   
    22   10   76 1    
    23   11   12 ar   
    24   11   48 1    
    25   12   13 ar   
    26   12   77 1    
    27   13   14 ar   
    28   13   15 1    
    29   14   78 1    
    30   15   16 1    
    31   15   79 1    
    32   15   80 1    
    33   16   17 1    
    34   17   18 1    
    35   17   81 1    
    36   17   82 1    
    37   18   19 1    
    38   18   22 1    
    39   18   83 1    
    40   19   20 am   BACKBONE|DICT|INTERRES
    41   19   21 2    
    42   20   84 1    
    43   20   85 1    
    44   22   23 am   BACKBONE|DICT|INTERRES
    45   22   86 1    
    46   23   24 2    
    47   23   25 1    
    48   25   26 1    
    49   25   27 1    
    50   25   87 1    
    51   26   88 1    
    52   26   89 1    
    53   26   90 1    
    54   27   28 am   BACKBONE|DICT|INTERRES
    55   27   91 1    
    56   28   29 2    
    57   28   30 1    
    58   30   31 1    
    59   30   32 1    
    60   30   92 1    
    61   31   93 1    
    62   31   94 1    
    63   31   95 1    
    64   32   33 am   BACKBONE|DICT|INTERRES
    65   32   96 1    
    66   33   34 2    
    67   33   35 1    
    68   35   36 1    
    69   35   37 1    
    70   35   97 1    
    71   36   98 1    
    72   36   99 1    
    73   36  100 1    
    74   37   38 am   BACKBONE|DICT|INTERRES
    75   37  101 1    
    76   38   39 2    
    77   38   40 1    
    78   40   41 1    
    79   40   42 1    
    80   40  102 1    
    81   41  103 1    
    82   41  104 1    
    83   41  105 1    
    84   42   43 am   BACKBONE|DICT|INTERRES
    85   42  106 1    
    86   43   44 2    
    87   43   45 1    
    88   45   46 1    
    89   45   49 1    
    90   45  107 1    
    91   46   47 1    
    92   46  108 1    
    93   46  109 1    
    94   47   48 1    
    95   48  110 1    
    96   48  111 1    
    97   49   50 am   BACKBONE|DICT|INTERRES
    98   49  112 1    
    99   50   51 2    
   100   50   52 1    
   101   52   53 1    
   102   52   54 1    
   103   52  113 1    
   104   53  114 1    
   105   53  115 1    
   106   53  116 1    
   107   54   55 am   BACKBONE|DICT|INTERRES
   108   54  117 1    
   109   55   56 2    
   110   55   57 1    
   111   57   58 1    
   112   57   59 1    
   113   57  118 1    
   114   58  119 1    
   115   58  120 1    
   116   58  121 1    
   117   59   60 am   BACKBONE|DICT|INTERRES
   118   59  122 1    
   119   60   61 2    
   120   60   62 1    
   121   62   63 1    
   122   62   64 1    
   123   62  123 1    
   124   63  124 1    
   125   63  125 1    
   126   63  126 1    
   127   64   65 am   BACKBONE|DICT|INTERRES
   128   64  127 1    
   129   65   66 2    
@<TRIPOS>SUBSTRUCTURE
     1 UNK         1 GROUP             0       ****    0 ROOT    
