@<TRIPOS>MOLECULE
3R134
127   129    1
SMALL
USER_CHARGES


@<TRIPOS>ATOM
      1 CA         31.1066  -46.2211  -52.3096 C.3       0 UNK        -0.1968 
      2 C          32.5432  -45.7353  -52.2222 C.2       0 UNK         0.4852 
      3 O          33.1905  -45.9293  -51.1930 O.2       0 UNK        -0.5359 
      4 N          33.0663  -45.1273  -53.2965 N.am      1 UNK        -0.4300 
      5 CA         34.4469  -44.6208  -53.3679 C.3       1 UNK         0.0863 
      6 C6         34.6919  -43.6899  -54.5813 C.3       11 UNK        -0.0953 
      7 S7         33.6208  -42.2106  -54.5549 S.3       11 UNK        -0.2369 
      8 C8         32.5959  -42.4368  -56.0432 C.3       11 UNK         0.0226 
      9 C9         31.6542  -43.6213  -55.9008 C.ar      11 UNK        -0.0699 
     10 C10        31.9910  -44.8557  -56.4639 C.ar      11 UNK        -0.0804 
     11 C11        31.1525  -45.9584  -56.2966 C.ar      11 UNK        -0.0871 
     12 C12        29.9545  -45.8137  -55.5942 C.ar      11 UNK        -0.1008 
     13 C13        29.6019  -44.5840  -55.0346 C.ar      11 UNK        -0.0735 
     14 C14        30.4565  -43.4885  -55.1899 C.ar      11 UNK        -0.0945 
     15 C15        28.3078  -44.4552  -54.2478 C.3       11 UNK         0.0169 
     16 S16        26.9736  -43.8335  -55.3083 S.3       11 UNK        -0.2669 
     17 C17        25.4907  -44.3737  -54.3912 C.3       11 UNK        -0.0850 
     18 CA         24.9140  -45.7213  -54.9199 C.3       10 UNK         0.0855 
     19 C          23.7030  -46.2276  -54.0803 C.2       10 UNK         0.5543 
     20 N          22.7272  -46.9049  -54.6731 N.am      10 UNK        -0.7343 
     21 O          23.6601  -46.0347  -52.8678 O.2       10 UNK        -0.5027 
     22 N          24.7032  -45.7355  -56.3795 N.am      10 UNK        -0.4495 
     23 C          23.8962  -44.9282  -57.0807 C.2       10 UNK         0.4903 
     24 O          23.1500  -44.0843  -56.5814 O.2       10 UNK        -0.4860 
     25 CA         23.9598  -45.1082  -58.6078 C.3       9 UNK         0.0227 
     26 CB         23.0749  -44.1112  -59.3874 C.3       9 UNK        -0.1964 
     27 N          25.3480  -45.1024  -59.0872 N.am      9 UNK        -0.4231 
     28 C          26.2247  -44.0843  -59.0904 C.2       9 UNK         0.5014 
     29 O          25.9319  -42.9288  -58.7800 O.2       9 UNK        -0.5270 
     30 CA         27.6780  -44.4035  -59.5145 C.3       8 UNK         0.0284 
     31 CB         28.7128  -43.5434  -58.7646 C.3       8 UNK        -0.1977 
     32 N          28.0324  -45.8165  -59.3433 N.am      8 UNK        -0.4342 
     33 C          27.7791  -46.7880  -60.2290 C.2       8 UNK         0.5039 
     34 O          27.2412  -46.5904  -61.3183 O.2       8 UNK        -0.5547 
     35 CA         28.1478  -48.2276  -59.8287 C.3       7 UNK         0.0281 
     36 CB         29.5129  -48.6092  -60.4254 C.3       7 UNK        -0.1963 
     37 N          28.1650  -48.5032  -58.3861 N.am      7 UNK        -0.4444 
     38 C          27.1418  -48.3595  -57.5288 C.2       7 UNK         0.5104 
     39 O          26.0693  -47.8337  -57.8286 O.2       7 UNK        -0.5100 
     40 CA         27.3476  -48.8873  -56.0958 C.3       6 UNK         0.0396 
     41 CB         26.1168  -49.6599  -55.5868 C.3       6 UNK        -0.1801 
     42 N          28.5442  -49.7324  -55.9881 N.am      6 UNK        -0.4747 
     43 C          29.3978  -49.7307  -54.9559 C.2       6 UNK         0.5012 
     44 O          29.2449  -49.0505  -53.9380 O.2       6 UNK        -0.5003 
     45 CA         30.6482  -50.6180  -55.1024 C.3       5 UNK         0.0782 
     46 C46        31.7381  -50.0033  -56.0282 C.3       11 UNK        -0.0868 
     47 S47        32.3080  -48.3333  -55.5443 S.3       11 UNK        -0.2515 
     48 C48        31.5462  -47.3154  -56.8467 C.3       11 UNK         0.0199 
     49 N          31.1597  -50.9514  -53.7746 N.am      5 UNK        -0.4607 
     50 C          31.8651  -52.0519  -53.4960 C.2       4 UNK         0.5031 
     51 O          32.2074  -52.8710  -54.3512 O.2       4 UNK        -0.5119 
     52 CA         32.2552  -52.2686  -52.0260 C.3       4 UNK         0.0263 
     53 CB         32.9684  -53.6141  -51.7917 C.3       4 UNK        -0.1967 
     54 N          33.1323  -51.1920  -51.5750 N.am      4 UNK        -0.4237 
     55 C          32.7509  -50.1207  -50.8744 C.2       3 UNK         0.4908 
     56 O          31.5840  -49.8897  -50.5571 O.2       3 UNK        -0.5102 
     57 CA         33.8572  -49.1401  -50.4545 C.3       3 UNK         0.0241 
     58 CB         34.8345  -49.7750  -49.4440 C.3       3 UNK        -0.1971 
     59 N          34.5605  -48.5244  -51.5867 N.am      3 UNK        -0.4139 
     60 C          35.3631  -49.0951  -52.5000 C.2       2 UNK         0.5016 
     61 O          35.6548  -50.2928  -52.4946 O.2       2 UNK        -0.5319 
     62 CA         35.9227  -48.1879  -53.6156 C.3       2 UNK         0.0286 
     63 CB         35.9806  -48.9194  -54.9693 C.3       2 UNK        -0.1963 
     64 N          35.1319  -46.9603  -53.7621 N.am      2 UNK        -0.4790 
     65 C          35.5016  -45.7495  -53.3171 C.2       1 UNK         0.5024 
     66 O          36.6111  -45.5110  -52.8389 O.2       1 UNK        -0.4888 
     67 H67        30.9528  -46.8181  -53.2072 H         1 UNK         0.0892 
     68 H68        30.8594  -46.8477  -51.4527 H         1 UNK         0.0892 
     69 H69        30.4192  -45.3766  -52.3223 H         1 UNK         0.0892 
     70 H70        32.4917  -44.9670  -54.1147 H         1 UNK         0.3107 
     71 H71        34.6064  -44.0223  -52.4679 H         1 UNK         0.0773 
     72 H72        34.5725  -44.2315  -55.5196 H         1 UNK         0.0680 
     73 H73        35.7233  -43.3318  -54.5769 H         1 UNK         0.0680 
     74 H74        33.2406  -42.5547  -56.9156 H         1 UNK         0.0650 
     75 H75        32.0157  -41.5286  -56.2131 H         1 UNK         0.0650 
     76 H76        32.9160  -44.9653  -57.0135 H         1 UNK         0.1397 
     77 H77        29.3106  -46.6688  -55.4542 H         1 UNK         0.1363 
     78 H78        30.1930  -42.5353  -54.7520 H         1 UNK         0.1355 
     79 H79        28.0272  -45.4251  -53.8333 H         1 UNK         0.0707 
     80 H80        28.4432  -43.7817  -53.4002 H         1 UNK         0.0707 
     81 H81        24.7396  -43.5859  -54.4653 H         1 UNK         0.1034 
     82 H82        25.7380  -44.4472  -53.3306 H         1 UNK         0.1034 
     83 H83        25.6833  -46.4739  -54.7480 H         1 UNK         0.0482 
     84 H84        21.9514  -47.2392  -54.1234 H         1 UNK         0.3460 
     85 H85        22.7547  -47.0726  -55.6658 H         1 UNK         0.3460 
     86 H86        25.2404  -46.4284  -56.8935 H         1 UNK         0.2989 
     87 H87        23.5765  -46.1090  -58.8123 H         1 UNK         0.0559 
     88 H88        22.0262  -44.2278  -59.1120 H         1 UNK         0.0848 
     89 H89        23.1476  -44.2720  -60.4628 H         1 UNK         0.0848 
     90 H90        23.3464  -43.0753  -59.1831 H         1 UNK         0.0848 
     91 H91        25.7122  -46.0119  -59.3398 H         1 UNK         0.3144 
     92 H92        27.7514  -44.1490  -60.5738 H         1 UNK         0.0727 
     93 H93        29.7259  -43.7465  -59.1122 H         1 UNK         0.0790 
     94 H94        28.6883  -43.7285  -57.6916 H         1 UNK         0.0790 
     95 H95        28.5293  -42.4791  -58.9159 H         1 UNK         0.0790 
     96 H96        28.4537  -46.0699  -58.4618 H         1 UNK         0.3215 
     97 H97        27.3903  -48.8801  -60.2684 H         1 UNK         0.0863 
     98 H98        29.7426  -49.6617  -60.2579 H         1 UNK         0.0808 
     99 H99        30.3218  -48.0143  -59.9992 H         1 UNK         0.0808 
    100 H100       29.5259  -48.4477  -61.5045 H         1 UNK         0.0808 
    101 H101       29.0114  -48.9179  -58.0316 H         1 UNK         0.3118 
    102 H102       27.4672  -48.0025  -55.4691 H         1 UNK         0.0546 
    103 H103       25.9230  -50.5483  -56.1887 H         1 UNK         0.0828 
    104 H104       25.2185  -49.0418  -55.6175 H         1 UNK         0.0828 
    105 H105       26.2500  -49.9780  -54.5528 H         1 UNK         0.0828 
    106 H106       28.7015  -50.3747  -56.7533 H         1 UNK         0.3005 
    107 H107       30.3081  -51.5511  -55.5586 H         1 UNK         0.1257 
    108 H108       32.6134  -50.6543  -56.0457 H         1 UNK         0.0775 
    109 H109       31.3864  -49.9875  -57.0605 H         1 UNK         0.0775 
    110 H110       32.2418  -47.2141  -57.6813 H         1 UNK         0.0840 
    111 H111       30.6584  -47.8037  -57.2443 H         1 UNK         0.0840 
    112 H112       30.8837  -50.3141  -53.0368 H         1 UNK         0.2987 
    113 H113       31.3327  -52.2763  -51.4414 H         1 UNK         0.0785 
    114 H114       33.1970  -53.7612  -50.7360 H         1 UNK         0.0798 
    115 H115       33.9043  -53.6787  -52.3483 H         1 UNK         0.0798 
    116 H116       32.3413  -54.4496  -52.1058 H         1 UNK         0.0798 
    117 H117       34.1028  -51.2243  -51.8800 H         1 UNK         0.3079 
    118 H118       33.3589  -48.3179  -49.9386 H         1 UNK         0.0794 
    119 H119       34.2984  -50.1558  -48.5738 H         1 UNK         0.0786 
    120 H120       35.5577  -49.0436  -49.0833 H         1 UNK         0.0786 
    121 H121       35.3902  -50.6103  -49.8707 H         1 UNK         0.0786 
    122 H122       34.3661  -47.5337  -51.6900 H         1 UNK         0.3032 
    123 H123       36.9478  -47.9436  -53.3286 H         1 UNK         0.1094 
    124 H124       35.0110  -49.3267  -55.2539 H         1 UNK         0.0794 
    125 H125       36.3157  -48.2566  -55.7671 H         1 UNK         0.0794 
    126 H126       36.6803  -49.7552  -54.9302 H         1 UNK         0.0794 
    127 H127       34.2013  -47.0710  -54.1442 H         1 UNK         0.3016 
@<TRIPOS>BOND
     1    1    2 1    
     2    1   67 1    
     3    1   68 1    
     4    1   69 1    
     5    2    3 2    
     6    2    4 am   BACKBONE|DICT|INTERRES
     7    4    5 1    
     8    4   70 1    
     9    5    6 1    
    10    5   65 1    
    11    5   71 1    
    12    6    7 1    
    13    6   72 1    
    14    6   73 1    
    15    7    8 1    
    16    8    9 1    
    17    8   74 1    
    18    8   75 1    
    19    9   10 ar   
    20    9   14 ar   
    21   10   11 ar   
    22   10   76 1    
    23   11   12 ar   
    24   11   48 1    
    25   12   13 ar   
    26   12   77 1    
    27   13   14 ar   
    28   13   15 1    
    29   14   78 1    
    30   15   16 1    
    31   15   79 1    
    32   15   80 1    
    33   16   17 1    
    34   17   18 1    
    35   17   81 1    
    36   17   82 1    
    37   18   19 1    
    38   18   22 1    
    39   18   83 1    
    40   19   20 am   BACKBONE|DICT|INTERRES
    41   19   21 2    
    42   20   84 1    
    43   20   85 1    
    44   22   23 am   BACKBONE|DICT|INTERRES
    45   22   86 1    
    46   23   24 2    
    47   23   25 1    
    48   25   26 1    
    49   25   27 1    
    50   25   87 1    
    51   26   88 1    
    52   26   89 1    
    53   26   90 1    
    54   27   28 am   BACKBONE|DICT|INTERRES
    55   27   91 1    
    56   28   29 2    
    57   28   30 1    
    58   30   31 1    
    59   30   32 1    
    60   30   92 1    
    61   31   93 1    
    62   31   94 1    
    63   31   95 1    
    64   32   33 am   BACKBONE|DICT|INTERRES
    65   32   96 1    
    66   33   34 2    
    67   33   35 1    
    68   35   36 1    
    69   35   37 1    
    70   35   97 1    
    71   36   98 1    
    72   36   99 1    
    73   36  100 1    
    74   37   38 am   BACKBONE|DICT|INTERRES
    75   37  101 1    
    76   38   39 2    
    77   38   40 1    
    78   40   41 1    
    79   40   42 1    
    80   40  102 1    
    81   41  103 1    
    82   41  104 1    
    83   41  105 1    
    84   42   43 am   BACKBONE|DICT|INTERRES
    85   42  106 1    
    86   43   44 2    
    87   43   45 1    
    88   45   46 1    
    89   45   49 1    
    90   45  107 1    
    91   46   47 1    
    92   46  108 1    
    93   46  109 1    
    94   47   48 1    
    95   48  110 1    
    96   48  111 1    
    97   49   50 am   BACKBONE|DICT|INTERRES
    98   49  112 1    
    99   50   51 2    
   100   50   52 1    
   101   52   53 1    
   102   52   54 1    
   103   52  113 1    
   104   53  114 1    
   105   53  115 1    
   106   53  116 1    
   107   54   55 am   BACKBONE|DICT|INTERRES
   108   54  117 1    
   109   55   56 2    
   110   55   57 1    
   111   57   58 1    
   112   57   59 1    
   113   57  118 1    
   114   58  119 1    
   115   58  120 1    
   116   58  121 1    
   117   59   60 am   BACKBONE|DICT|INTERRES
   118   59  122 1    
   119   60   61 2    
   120   60   62 1    
   121   62   63 1    
   122   62   64 1    
   123   62  123 1    
   124   63  124 1    
   125   63  125 1    
   126   63  126 1    
   127   64   65 am   BACKBONE|DICT|INTERRES
   128   64  127 1    
   129   65   66 2    
@<TRIPOS>SUBSTRUCTURE
     1 UNK         1 GROUP             0       ****    0 ROOT    
