@<TRIPOS>MOLECULE
3R134
127   129    1
SMALL
USER_CHARGES


@<TRIPOS>ATOM
      1 CA         35.0123  -43.7579  -47.7200 C.3       0 UNK        -0.1968 
      2 C          35.4406  -44.4489  -49.0065 C.2       0 UNK         0.4852 
      3 O          36.5395  -45.0037  -49.0657 O.2       0 UNK        -0.5359 
      4 N          34.5866  -44.4107  -50.0367 N.am      1 UNK        -0.4300 
      5 CA         34.7901  -45.0812  -51.3238 C.3       1 UNK         0.0863 
      6 C6         33.9266  -44.4553  -52.4484 C.3       11 UNK        -0.0953 
      7 S7         32.1451  -44.3102  -52.0627 S.3       11 UNK        -0.2369 
      8 C8         31.6605  -42.9238  -53.1413 C.3       11 UNK         0.0226 
      9 C9         31.4281  -43.3713  -54.5785 C.ar      11 UNK        -0.0699 
     10 C10        32.5096  -43.6536  -55.4174 C.ar      11 UNK        -0.0804 
     11 C11        32.3009  -44.0890  -56.7282 C.ar      11 UNK        -0.0871 
     12 C12        30.9960  -44.1774  -57.2212 C.ar      11 UNK        -0.1008 
     13 C13        29.9028  -43.8861  -56.4003 C.ar      11 UNK        -0.0735 
     14 C14        30.1274  -43.4987  -55.0739 C.ar      11 UNK        -0.0945 
     15 C15        28.4886  -44.0587  -56.9411 C.3       11 UNK         0.0169 
     16 S16        27.3849  -42.6715  -56.5160 S.3       11 UNK        -0.2669 
     17 C17        25.8231  -43.3084  -57.2017 C.3       11 UNK        -0.0850 
     18 CA         25.1058  -44.3088  -56.2418 C.3       10 UNK         0.0855 
     19 C          24.0584  -43.6376  -55.3011 C.2       10 UNK         0.5543 
     20 N          22.9706  -44.3104  -54.9451 N.am      10 UNK        -0.7343 
     21 O          24.2408  -42.5043  -54.8636 O.2       10 UNK        -0.5027 
     22 N          24.6330  -45.5052  -56.9575 N.am      10 UNK        -0.4495 
     23 C          23.7383  -45.5123  -57.9562 C.2       10 UNK         0.4903 
     24 O          23.1320  -44.5096  -58.3375 O.2       10 UNK        -0.4860 
     25 CA         23.5001  -46.8661  -58.6567 C.3       9 UNK         0.0227 
     26 CB         22.8002  -46.7149  -60.0241 C.3       9 UNK        -0.1964 
     27 N          24.7192  -47.6743  -58.7939 N.am      9 UNK        -0.4231 
     28 C          25.8729  -47.3440  -59.3939 C.2       9 UNK         0.5014 
     29 O          26.0772  -46.2592  -59.9424 O.2       9 UNK        -0.5270 
     30 CA         26.9849  -48.4152  -59.3611 C.3       8 UNK         0.0284 
     31 CB         28.2716  -47.9537  -60.0712 C.3       8 UNK        -0.1977 
     32 N          27.3129  -48.8499  -57.9963 N.am      8 UNK        -0.4342 
     33 C          26.5555  -49.6682  -57.2483 C.2       8 UNK         0.5039 
     34 O          25.4822  -50.1283  -57.6433 O.2       8 UNK        -0.5547 
     35 CA         27.0304  -50.0441  -55.8322 C.3       7 UNK         0.0281 
     36 CB         27.4898  -51.5113  -55.8028 C.3       7 UNK        -0.1963 
     37 N          28.0942  -49.1979  -55.2895 N.am      7 UNK        -0.4444 
     38 C          27.9797  -47.8975  -54.9872 C.2       7 UNK         0.5104 
     39 O          26.9361  -47.2547  -55.1096 O.2       7 UNK        -0.5100 
     40 CA         29.2612  -47.1866  -54.5101 C.3       6 UNK         0.0396 
     41 CB         29.4115  -47.3054  -52.9873 C.3       6 UNK        -0.1801 
     42 N          30.4888  -47.6607  -55.1632 N.am      6 UNK        -0.4747 
     43 C          30.7045  -47.6609  -56.4894 C.2       6 UNK         0.5012 
     44 O          29.8660  -47.3042  -57.3165 O.2       6 UNK        -0.5003 
     45 CA         32.0495  -48.2280  -56.9764 C.3       5 UNK         0.0782 
     46 C46        33.2212  -47.2205  -56.8269 C.3       11 UNK        -0.0868 
     47 S47        33.3656  -46.1487  -58.3008 S.3       11 UNK        -0.2515 
     48 C48        33.4911  -44.4674  -57.6006 C.3       11 UNK         0.0199 
     49 N          32.3165  -49.5038  -56.3100 N.am      5 UNK        -0.4607 
     50 C          31.8131  -50.6775  -56.7206 C.2       4 UNK         0.5031 
     51 O          31.1543  -50.8154  -57.7512 O.2       4 UNK        -0.5119 
     52 CA         32.0732  -51.9116  -55.8377 C.3       4 UNK         0.0263 
     53 CB         33.3299  -52.6567  -56.3154 C.3       4 UNK        -0.1967 
     54 N          32.2090  -51.5989  -54.4139 N.am      4 UNK        -0.4237 
     55 C          31.2349  -51.0903  -53.6459 C.2       3 UNK         0.4908 
     56 O          30.0960  -50.8579  -54.0457 O.2       3 UNK        -0.5102 
     57 CA         31.6116  -50.7285  -52.2004 C.3       3 UNK         0.0241 
     58 CB         31.4160  -51.9394  -51.2744 C.3       3 UNK        -0.1971 
     59 N          32.9771  -50.2125  -52.0560 N.am      3 UNK        -0.4139 
     60 C          33.4671  -49.1377  -52.6896 C.2       2 UNK         0.5016 
     61 O          32.8412  -48.4795  -53.5270 O.2       2 UNK        -0.5319 
     62 CA         34.9276  -48.7753  -52.3802 C.3       2 UNK         0.0286 
     63 CB         35.8458  -49.2736  -53.5083 C.3       2 UNK        -0.1963 
     64 N          35.0984  -47.3312  -52.2248 N.am      2 UNK        -0.4790 
     65 C          34.5779  -46.6064  -51.2247 C.2       1 UNK         0.5024 
     66 O          33.9534  -47.0945  -50.2781 O.2       1 UNK        -0.4888 
     67 H67        34.0289  -43.2970  -47.8125 H         1 UNK         0.0892 
     68 H68        35.7276  -42.9796  -47.4554 H         1 UNK         0.0892 
     69 H69        34.9733  -44.4779  -46.9030 H         1 UNK         0.0892 
     70 H70        33.6827  -43.9740  -49.9238 H         1 UNK         0.3107 
     71 H71        35.8360  -44.9331  -51.6028 H         1 UNK         0.0773 
     72 H72        34.3143  -43.4589  -52.6649 H         1 UNK         0.0680 
     73 H73        34.0335  -45.0223  -53.3745 H         1 UNK         0.0680 
     74 H74        30.7507  -42.4783  -52.7362 H         1 UNK         0.0650 
     75 H75        32.4172  -42.1387  -53.1109 H         1 UNK         0.0650 
     76 H76        33.5178  -43.5491  -55.0446 H         1 UNK         0.1397 
     77 H77        30.8319  -44.5126  -58.2363 H         1 UNK         0.1363 
     78 H78        29.2858  -43.2954  -54.4262 H         1 UNK         0.1355 
     79 H79        28.0755  -44.9877  -56.5474 H         1 UNK         0.0707 
     80 H80        28.5069  -44.1686  -58.0267 H         1 UNK         0.0707 
     81 H81        26.0569  -43.7816  -58.1574 H         1 UNK         0.1034 
     82 H82        25.1740  -42.4687  -57.4571 H         1 UNK         0.1034 
     83 H83        25.8501  -44.7090  -55.5530 H         1 UNK         0.0482 
     84 H84        22.8139  -45.2435  -55.2905 H         1 UNK         0.3460 
     85 H85        22.2994  -43.8778  -54.3303 H         1 UNK         0.3460 
     86 H86        25.0759  -46.3734  -56.6892 H         1 UNK         0.2989 
     87 H87        22.8325  -47.4309  -58.0047 H         1 UNK         0.0559 
     88 H88        22.6192  -47.6848  -60.4873 H         1 UNK         0.0848 
     89 H89        23.3942  -46.1179  -60.7170 H         1 UNK         0.0848 
     90 H90        21.8323  -46.2234  -59.9182 H         1 UNK         0.0848 
     91 H91        24.6974  -48.5958  -58.3584 H         1 UNK         0.3144 
     92 H92        26.6066  -49.2799  -59.9105 H         1 UNK         0.0727 
     93 H93        29.0489  -48.7169  -60.0264 H         1 UNK         0.0790 
     94 H94        28.6717  -47.0407  -59.6290 H         1 UNK         0.0790 
     95 H95        28.0810  -47.7453  -61.1247 H         1 UNK         0.0790 
     96 H96        28.1618  -48.4617  -57.5962 H         1 UNK         0.3215 
     97 H97        26.1651  -49.9454  -55.1734 H         1 UNK         0.0863 
     98 H98        27.6878  -51.8438  -54.7838 H         1 UNK         0.0808 
     99 H99        28.3991  -51.6593  -56.3872 H         1 UNK         0.0808 
    100 H100       26.7255  -52.1738  -56.2119 H         1 UNK         0.0808 
    101 H101       28.9733  -49.6622  -55.0749 H         1 UNK         0.3118 
    102 H102       29.1582  -46.1295  -54.7516 H         1 UNK         0.0546 
    103 H103       28.5618  -46.8502  -52.4771 H         1 UNK         0.0828 
    104 H104       30.3114  -46.8010  -52.6342 H         1 UNK         0.0828 
    105 H105       29.4611  -48.3464  -52.6704 H         1 UNK         0.0828 
    106 H106       31.2397  -47.9735  -54.5528 H         1 UNK         0.3005 
    107 H107       31.9285  -48.4389  -58.0421 H         1 UNK         0.1257 
    108 H108       34.1677  -47.7566  -56.7412 H         1 UNK         0.0775 
    109 H109       33.1367  -46.6294  -55.9127 H         1 UNK         0.0775 
    110 H110       34.4246  -44.3954  -57.0400 H         1 UNK         0.0840 
    111 H111       33.5692  -43.7505  -58.4189 H         1 UNK         0.0840 
    112 H112       32.7832  -49.4500  -55.4130 H         1 UNK         0.2987 
    113 H113       31.2152  -52.5782  -55.9498 H         1 UNK         0.0785 
    114 H114       34.2280  -52.0473  -56.2056 H         1 UNK         0.0798 
    115 H115       33.2461  -52.9263  -57.3693 H         1 UNK         0.0798 
    116 H116       33.4797  -53.5817  -55.7582 H         1 UNK         0.0798 
    117 H117       33.1140  -51.7566  -53.9958 H         1 UNK         0.3079 
    118 H118       30.9335  -49.9399  -51.8721 H         1 UNK         0.0794 
    119 H119       32.0958  -52.7552  -51.5235 H         1 UNK         0.0786 
    120 H120       30.3992  -52.3279  -51.3507 H         1 UNK         0.0786 
    121 H121       31.5795  -51.6718  -50.2302 H         1 UNK         0.0786 
    122 H122       33.5687  -50.6963  -51.3955 H         1 UNK         0.3032 
    123 H123       35.2270  -49.2538  -51.4448 H         1 UNK         0.1094 
    124 H124       36.8921  -49.0531  -53.2956 H         1 UNK         0.0794 
    125 H125       35.7641  -50.3543  -53.6322 H         1 UNK         0.0794 
    126 H126       35.5944  -48.8163  -54.4666 H         1 UNK         0.0794 
    127 H127       35.5703  -46.8532  -52.9784 H         1 UNK         0.3016 
@<TRIPOS>BOND
     1    1    2 1    
     2    1   67 1    
     3    1   68 1    
     4    1   69 1    
     5    2    3 2    
     6    2    4 am   BACKBONE|DICT|INTERRES
     7    4    5 1    
     8    4   70 1    
     9    5    6 1    
    10    5   65 1    
    11    5   71 1    
    12    6    7 1    
    13    6   72 1    
    14    6   73 1    
    15    7    8 1    
    16    8    9 1    
    17    8   74 1    
    18    8   75 1    
    19    9   10 ar   
    20    9   14 ar   
    21   10   11 ar   
    22   10   76 1    
    23   11   12 ar   
    24   11   48 1    
    25   12   13 ar   
    26   12   77 1    
    27   13   14 ar   
    28   13   15 1    
    29   14   78 1    
    30   15   16 1    
    31   15   79 1    
    32   15   80 1    
    33   16   17 1    
    34   17   18 1    
    35   17   81 1    
    36   17   82 1    
    37   18   19 1    
    38   18   22 1    
    39   18   83 1    
    40   19   20 am   BACKBONE|DICT|INTERRES
    41   19   21 2    
    42   20   84 1    
    43   20   85 1    
    44   22   23 am   BACKBONE|DICT|INTERRES
    45   22   86 1    
    46   23   24 2    
    47   23   25 1    
    48   25   26 1    
    49   25   27 1    
    50   25   87 1    
    51   26   88 1    
    52   26   89 1    
    53   26   90 1    
    54   27   28 am   BACKBONE|DICT|INTERRES
    55   27   91 1    
    56   28   29 2    
    57   28   30 1    
    58   30   31 1    
    59   30   32 1    
    60   30   92 1    
    61   31   93 1    
    62   31   94 1    
    63   31   95 1    
    64   32   33 am   BACKBONE|DICT|INTERRES
    65   32   96 1    
    66   33   34 2    
    67   33   35 1    
    68   35   36 1    
    69   35   37 1    
    70   35   97 1    
    71   36   98 1    
    72   36   99 1    
    73   36  100 1    
    74   37   38 am   BACKBONE|DICT|INTERRES
    75   37  101 1    
    76   38   39 2    
    77   38   40 1    
    78   40   41 1    
    79   40   42 1    
    80   40  102 1    
    81   41  103 1    
    82   41  104 1    
    83   41  105 1    
    84   42   43 am   BACKBONE|DICT|INTERRES
    85   42  106 1    
    86   43   44 2    
    87   43   45 1    
    88   45   46 1    
    89   45   49 1    
    90   45  107 1    
    91   46   47 1    
    92   46  108 1    
    93   46  109 1    
    94   47   48 1    
    95   48  110 1    
    96   48  111 1    
    97   49   50 am   BACKBONE|DICT|INTERRES
    98   49  112 1    
    99   50   51 2    
   100   50   52 1    
   101   52   53 1    
   102   52   54 1    
   103   52  113 1    
   104   53  114 1    
   105   53  115 1    
   106   53  116 1    
   107   54   55 am   BACKBONE|DICT|INTERRES
   108   54  117 1    
   109   55   56 2    
   110   55   57 1    
   111   57   58 1    
   112   57   59 1    
   113   57  118 1    
   114   58  119 1    
   115   58  120 1    
   116   58  121 1    
   117   59   60 am   BACKBONE|DICT|INTERRES
   118   59  122 1    
   119   60   61 2    
   120   60   62 1    
   121   62   63 1    
   122   62   64 1    
   123   62  123 1    
   124   63  124 1    
   125   63  125 1    
   126   63  126 1    
   127   64   65 am   BACKBONE|DICT|INTERRES
   128   64  127 1    
   129   65   66 2    
@<TRIPOS>SUBSTRUCTURE
     1 UNK         1 GROUP             0       ****    0 ROOT    
