@<TRIPOS>MOLECULE
3R134
127   129    1
SMALL
USER_CHARGES


@<TRIPOS>ATOM
      1 CA         30.2359  -46.0094  -53.4804 C.3       0 UNK        -0.1968 
      2 C          31.0486  -45.9682  -52.1948 C.2       0 UNK         0.4852 
      3 O          30.5705  -46.4321  -51.1586 O.2       0 UNK        -0.5359 
      4 N          32.2552  -45.3894  -52.2525 N.am      1 UNK        -0.4300 
      5 CA         33.1558  -45.2090  -51.1112 C.3       1 UNK         0.0863 
      6 C6         34.0786  -43.9737  -51.2797 C.3       11 UNK        -0.0953 
      7 S7         33.1448  -42.4118  -51.3671 S.3       11 UNK        -0.2369 
      8 C8         33.6428  -41.7758  -52.9975 C.3       11 UNK         0.0226 
      9 C9         32.8812  -42.4406  -54.1354 C.ar      11 UNK        -0.0699 
     10 C10        33.4744  -43.4480  -54.9062 C.ar      11 UNK        -0.0804 
     11 C11        32.7917  -44.0010  -55.9963 C.ar      11 UNK        -0.0871 
     12 C12        31.5145  -43.5321  -56.3140 C.ar      11 UNK        -0.1008 
     13 C13        30.9038  -42.5475  -55.5355 C.ar      11 UNK        -0.0735 
     14 C14        31.5893  -42.0060  -54.4461 C.ar      11 UNK        -0.0945 
     15 C15        29.5165  -42.0537  -55.9022 C.3       11 UNK         0.0169 
     16 S16        28.2333  -43.2387  -55.3923 S.3       11 UNK        -0.2669 
     17 C17        26.8588  -42.6912  -56.4650 C.3       11 UNK        -0.0850 
     18 CA         26.5638  -43.6566  -57.6464 C.3       10 UNK         0.0855 
     19 C          27.7418  -43.7752  -58.6531 C.2       10 UNK         0.5543 
     20 N          28.3392  -44.9407  -58.8680 N.am      10 UNK        -0.7343 
     21 O          28.1069  -42.7829  -59.2783 O.2       10 UNK        -0.5027 
     22 N          25.9938  -44.9374  -57.1989 N.am      10 UNK        -0.4495 
     23 C          24.7014  -45.1035  -56.8845 C.2       10 UNK         0.4903 
     24 O          23.8706  -44.1942  -56.9146 O.2       10 UNK        -0.4860 
     25 CA         24.2267  -46.5094  -56.4824 C.3       9 UNK         0.0227 
     26 CB         23.4575  -47.1590  -57.6437 C.3       9 UNK        -0.1964 
     27 N          25.3152  -47.3921  -56.0584 N.am      9 UNK        -0.4231 
     28 C          25.8894  -47.3496  -54.8456 C.2       9 UNK         0.5014 
     29 O          25.5496  -46.5565  -53.9659 O.2       9 UNK        -0.5270 
     30 CA         27.0411  -48.3359  -54.5634 C.3       8 UNK         0.0284 
     31 CB         27.1000  -48.7838  -53.0875 C.3       8 UNK        -0.1977 
     32 N          27.0673  -49.4838  -55.4761 N.am      8 UNK        -0.4342 
     33 C          26.1842  -50.4875  -55.5890 C.2       8 UNK         0.5039 
     34 O          25.2115  -50.6394  -54.8494 O.2       8 UNK        -0.5547 
     35 CA         26.4369  -51.4773  -56.7476 C.3       7 UNK         0.0281 
     36 CB         25.1519  -52.1949  -57.2140 C.3       7 UNK        -0.1963 
     37 N          27.1462  -50.8606  -57.8805 N.am      7 UNK        -0.4444 
     38 C          26.7057  -49.8560  -58.6538 C.2       7 UNK         0.5104 
     39 O          25.5934  -49.3442  -58.5376 O.2       7 UNK        -0.5100 
     40 CA         27.7223  -49.2752  -59.6572 C.3       6 UNK         0.0396 
     41 CB         27.1876  -48.0291  -60.3954 C.3       6 UNK        -0.1801 
     42 N          29.0181  -48.9963  -59.0210 N.am      6 UNK        -0.4747 
     43 C          29.2405  -48.1835  -57.9765 C.2       6 UNK         0.5012 
     44 O          28.3701  -47.4766  -57.4590 O.2       6 UNK        -0.5003 
     45 CA         30.6559  -48.2148  -57.3630 C.3       5 UNK         0.0782 
     46 C46        31.1841  -46.7790  -57.1207 C.3       11 UNK        -0.0868 
     47 S47        32.8667  -46.7489  -56.4064 S.3       11 UNK        -0.2515 
     48 C48        33.4398  -45.0789  -56.8550 C.3       11 UNK         0.0199 
     49 N          30.6784  -49.0090  -56.1296 N.am      5 UNK        -0.4607 
     50 C          30.3314  -50.2930  -55.9806 C.2       4 UNK         0.5031 
     51 O          29.9091  -51.0018  -56.8953 O.2       4 UNK        -0.5119 
     52 CA         30.4995  -50.8776  -54.5655 C.3       4 UNK         0.0263 
     53 CB         29.8614  -52.2708  -54.4163 C.3       4 UNK        -0.1967 
     54 N          31.9132  -50.9563  -54.1946 N.am      4 UNK        -0.4237 
     55 C          32.6530  -49.9137  -53.8005 C.2       3 UNK         0.4908 
     56 O          32.2055  -48.7717  -53.6653 O.2       3 UNK        -0.5102 
     57 CA         34.1396  -50.1833  -53.5559 C.3       3 UNK         0.0241 
     58 CB         34.8943  -50.3788  -54.8838 C.3       3 UNK        -0.1971 
     59 N          34.6943  -49.0370  -52.8485 N.am      3 UNK        -0.4139 
     60 C          35.6781  -49.0676  -51.9465 C.2       2 UNK         0.5016 
     61 O          36.2801  -50.0935  -51.6252 O.2       2 UNK        -0.5319 
     62 CA         36.0750  -47.7299  -51.2972 C.3       2 UNK         0.0286 
     63 CB         37.4497  -47.2717  -51.8132 C.3       2 UNK        -0.1963 
     64 N          35.1078  -46.6468  -51.5145 N.am      2 UNK        -0.4790 
     65 C          33.9572  -46.4992  -50.8405 C.2       1 UNK         0.5024 
     66 O          33.5486  -47.3145  -50.0129 O.2       1 UNK        -0.4888 
     67 H67        29.2290  -45.6310  -53.3052 H         1 UNK         0.0892 
     68 H68        30.6900  -45.3990  -54.2593 H         1 UNK         0.0892 
     69 H69        30.1584  -47.0324  -53.8442 H         1 UNK         0.0892 
     70 H70        32.5765  -45.0121  -53.1327 H         1 UNK         0.3107 
     71 H71        32.5480  -45.0318  -50.2208 H         1 UNK         0.0773 
     72 H72        34.7075  -44.0685  -52.1656 H         1 UNK         0.0680 
     73 H73        34.7604  -43.8919  -50.4308 H         1 UNK         0.0680 
     74 H74        33.4523  -40.7017  -53.0202 H         1 UNK         0.0650 
     75 H75        34.7200  -41.8893  -53.1291 H         1 UNK         0.0650 
     76 H76        34.4755  -43.7844  -54.6733 H         1 UNK         0.1397 
     77 H77        30.9850  -43.9363  -57.1657 H         1 UNK         0.1363 
     78 H78        31.1268  -41.2312  -53.8498 H         1 UNK         0.1355 
     79 H79        29.4747  -41.8978  -56.9810 H         1 UNK         0.0707 
     80 H80        29.3136  -41.0848  -55.4433 H         1 UNK         0.0707 
     81 H81        27.0589  -41.6872  -56.8436 H         1 UNK         0.1034 
     82 H82        25.9690  -42.5849  -55.8432 H         1 UNK         0.1034 
     83 H83        25.7892  -43.1732  -58.2455 H         1 UNK         0.0482 
     84 H84        28.1165  -45.7747  -58.3402 H         1 UNK         0.3460 
     85 H85        29.0772  -44.9706  -59.5517 H         1 UNK         0.3460 
     86 H86        26.6262  -45.7228  -57.1408 H         1 UNK         0.2989 
     87 H87        23.5322  -46.3961  -55.6472 H         1 UNK         0.0559 
     88 H88        22.5648  -46.5823  -57.8892 H         1 UNK         0.0848 
     89 H89        23.1325  -48.1693  -57.3939 H         1 UNK         0.0848 
     90 H90        24.0637  -47.2142  -58.5486 H         1 UNK         0.0848 
     91 H91        25.6370  -48.0733  -56.7366 H         1 UNK         0.3144 
     92 H92        27.9561  -47.7788  -54.7676 H         1 UNK         0.0727 
     93 H93        27.9103  -49.4906  -52.9138 H         1 UNK         0.0790 
     94 H94        26.1697  -49.2559  -52.7708 H         1 UNK         0.0790 
     95 H95        27.2706  -47.9315  -52.4285 H         1 UNK         0.0790 
     96 H96        27.7823  -49.4348  -56.1886 H         1 UNK         0.3215 
     97 H97        27.1087  -52.2398  -56.3517 H         1 UNK         0.0863 
     98 H98        25.3558  -52.8813  -58.0357 H         1 UNK         0.0808 
     99 H99        24.3891  -51.4899  -57.5457 H         1 UNK         0.0808 
    100 H100       24.7173  -52.7817  -56.4038 H         1 UNK         0.0808 
    101 H101       28.1136  -51.1504  -57.9895 H         1 UNK         0.3118 
    102 H102       27.9010  -50.0511  -60.4030 H         1 UNK         0.0546 
    103 H103       26.8929  -47.2390  -59.7050 H         1 UNK         0.0828 
    104 H104       26.3067  -48.2794  -60.9876 H         1 UNK         0.0828 
    105 H105       27.9315  -47.6191  -61.0780 H         1 UNK         0.0828 
    106 H106       29.7861  -49.5678  -59.3473 H         1 UNK         0.3005 
    107 H107       31.3283  -48.7019  -58.0723 H         1 UNK         0.1257 
    108 H108       31.1961  -46.2253  -58.0613 H         1 UNK         0.0775 
    109 H109       30.5166  -46.2340  -56.4518 H         1 UNK         0.0775 
    110 H110       34.5245  -45.0436  -56.7426 H         1 UNK         0.0840 
    111 H111       33.2423  -44.8897  -57.9112 H         1 UNK         0.0840 
    112 H112       31.0926  -48.5492  -55.3247 H         1 UNK         0.2987 
    113 H113       29.9909  -50.2058  -53.8712 H         1 UNK         0.0785 
    114 H114       29.9725  -52.6505  -53.4004 H         1 UNK         0.0798 
    115 H115       30.3066  -52.9980  -55.0967 H         1 UNK         0.0798 
    116 H116       28.7930  -52.2342  -54.6279 H         1 UNK         0.0798 
    117 H117       32.3610  -51.8536  -54.3164 H         1 UNK         0.3079 
    118 H118       34.2292  -51.0799  -52.9386 H         1 UNK         0.0794 
    119 H119       34.7947  -49.5076  -55.5332 H         1 UNK         0.0786 
    120 H120       34.5153  -51.2414  -55.4329 H         1 UNK         0.0786 
    121 H121       35.9577  -50.5479  -54.7132 H         1 UNK         0.0786 
    122 H122       34.1903  -48.1720  -52.9995 H         1 UNK         0.3032 
    123 H123       36.1574  -47.9108  -50.2228 H         1 UNK         0.1094 
    124 H124       37.4336  -47.0741  -52.8858 H         1 UNK         0.0794 
    125 H125       37.7823  -46.3648  -51.3078 H         1 UNK         0.0794 
    126 H126       38.2088  -48.0348  -51.6348 H         1 UNK         0.0794 
    127 H127       35.3724  -45.9381  -52.1832 H         1 UNK         0.3016 
@<TRIPOS>BOND
     1    1    2 1    
     2    1   67 1    
     3    1   68 1    
     4    1   69 1    
     5    2    3 2    
     6    2    4 am   BACKBONE|DICT|INTERRES
     7    4    5 1    
     8    4   70 1    
     9    5    6 1    
    10    5   65 1    
    11    5   71 1    
    12    6    7 1    
    13    6   72 1    
    14    6   73 1    
    15    7    8 1    
    16    8    9 1    
    17    8   74 1    
    18    8   75 1    
    19    9   10 ar   
    20    9   14 ar   
    21   10   11 ar   
    22   10   76 1    
    23   11   12 ar   
    24   11   48 1    
    25   12   13 ar   
    26   12   77 1    
    27   13   14 ar   
    28   13   15 1    
    29   14   78 1    
    30   15   16 1    
    31   15   79 1    
    32   15   80 1    
    33   16   17 1    
    34   17   18 1    
    35   17   81 1    
    36   17   82 1    
    37   18   19 1    
    38   18   22 1    
    39   18   83 1    
    40   19   20 am   BACKBONE|DICT|INTERRES
    41   19   21 2    
    42   20   84 1    
    43   20   85 1    
    44   22   23 am   BACKBONE|DICT|INTERRES
    45   22   86 1    
    46   23   24 2    
    47   23   25 1    
    48   25   26 1    
    49   25   27 1    
    50   25   87 1    
    51   26   88 1    
    52   26   89 1    
    53   26   90 1    
    54   27   28 am   BACKBONE|DICT|INTERRES
    55   27   91 1    
    56   28   29 2    
    57   28   30 1    
    58   30   31 1    
    59   30   32 1    
    60   30   92 1    
    61   31   93 1    
    62   31   94 1    
    63   31   95 1    
    64   32   33 am   BACKBONE|DICT|INTERRES
    65   32   96 1    
    66   33   34 2    
    67   33   35 1    
    68   35   36 1    
    69   35   37 1    
    70   35   97 1    
    71   36   98 1    
    72   36   99 1    
    73   36  100 1    
    74   37   38 am   BACKBONE|DICT|INTERRES
    75   37  101 1    
    76   38   39 2    
    77   38   40 1    
    78   40   41 1    
    79   40   42 1    
    80   40  102 1    
    81   41  103 1    
    82   41  104 1    
    83   41  105 1    
    84   42   43 am   BACKBONE|DICT|INTERRES
    85   42  106 1    
    86   43   44 2    
    87   43   45 1    
    88   45   46 1    
    89   45   49 1    
    90   45  107 1    
    91   46   47 1    
    92   46  108 1    
    93   46  109 1    
    94   47   48 1    
    95   48  110 1    
    96   48  111 1    
    97   49   50 am   BACKBONE|DICT|INTERRES
    98   49  112 1    
    99   50   51 2    
   100   50   52 1    
   101   52   53 1    
   102   52   54 1    
   103   52  113 1    
   104   53  114 1    
   105   53  115 1    
   106   53  116 1    
   107   54   55 am   BACKBONE|DICT|INTERRES
   108   54  117 1    
   109   55   56 2    
   110   55   57 1    
   111   57   58 1    
   112   57   59 1    
   113   57  118 1    
   114   58  119 1    
   115   58  120 1    
   116   58  121 1    
   117   59   60 am   BACKBONE|DICT|INTERRES
   118   59  122 1    
   119   60   61 2    
   120   60   62 1    
   121   62   63 1    
   122   62   64 1    
   123   62  123 1    
   124   63  124 1    
   125   63  125 1    
   126   63  126 1    
   127   64   65 am   BACKBONE|DICT|INTERRES
   128   64  127 1    
   129   65   66 2    
@<TRIPOS>SUBSTRUCTURE
     1 UNK         1 GROUP             0       ****    0 ROOT    
