@<TRIPOS>MOLECULE
3R134
127   129    1
SMALL
USER_CHARGES


@<TRIPOS>ATOM
      1 CA         35.8373  -48.1998  -53.8846 C.3       0 UNK        -0.1968 
      2 C          34.5857  -47.4204  -53.5144 C.2       0 UNK         0.4852 
      3 O          33.4783  -47.8846  -53.7919 O.2       0 UNK        -0.5359 
      4 N          34.7480  -46.2463  -52.8863 N.am      1 UNK        -0.4300 
      5 CA         33.6695  -45.3218  -52.4986 C.3       1 UNK         0.0863 
      6 C6         34.2225  -43.9960  -51.9134 C.3       11 UNK        -0.0953 
      7 S7         35.2085  -43.0396  -53.1132 S.3       11 UNK        -0.2369 
      8 C8         33.9877  -41.8139  -53.6925 C.3       11 UNK         0.0226 
      9 C9         32.8969  -42.4762  -54.5195 C.ar      11 UNK        -0.0699 
     10 C10        33.1581  -42.8488  -55.8387 C.ar      11 UNK        -0.0804 
     11 C11        32.2027  -43.5477  -56.5788 C.ar      11 UNK        -0.0871 
     12 C12        30.9662  -43.8482  -55.9979 C.ar      11 UNK        -0.1008 
     13 C13        30.6757  -43.4590  -54.6818 C.ar      11 UNK        -0.0735 
     14 C14        31.6495  -42.7638  -53.9566 C.ar      11 UNK        -0.0945 
     15 C15        29.3538  -43.7841  -53.9763 C.3       11 UNK         0.0169 
     16 S16        28.1812  -44.8459  -54.8922 S.3       11 UNK        -0.2669 
     17 C17        27.5023  -43.6752  -56.1239 C.3       11 UNK        -0.0850 
     18 CA         25.9626  -43.7804  -56.2863 C.3       10 UNK         0.0855 
     19 C          25.4609  -42.7325  -57.3239 C.2       10 UNK         0.5543 
     20 N          24.9806  -43.1324  -58.4950 N.am      10 UNK        -0.7343 
     21 O          25.5130  -41.5345  -57.0577 O.2       10 UNK        -0.5027 
     22 N          25.5383  -45.1701  -56.5320 N.am      10 UNK        -0.4495 
     23 C          24.2785  -45.6236  -56.4911 C.2       10 UNK         0.4903 
     24 O          23.2931  -44.9149  -56.2851 O.2       10 UNK        -0.4860 
     25 CA         24.0901  -47.1356  -56.6971 C.3       9 UNK         0.0227 
     26 CB         23.9741  -47.4660  -58.1938 C.3       9 UNK        -0.1964 
     27 N          25.1725  -47.9207  -56.0914 N.am      9 UNK        -0.4231 
     28 C          25.2975  -48.1213  -54.7689 C.2       9 UNK         0.5014 
     29 O          24.4918  -47.6767  -53.9486 O.2       9 UNK        -0.5270 
     30 CA         26.5120  -48.9221  -54.2465 C.3       8 UNK         0.0284 
     31 CB         26.1202  -49.8648  -53.0883 C.3       8 UNK        -0.1977 
     32 N          27.2767  -49.6429  -55.2725 N.am      8 UNK        -0.4342 
     33 C          26.8636  -50.6386  -56.0705 C.2       8 UNK         0.5039 
     34 O          25.7501  -51.1614  -55.9987 O.2       8 UNK        -0.5547 
     35 CA         27.8604  -51.0882  -57.1644 C.3       7 UNK         0.0281 
     36 CB         27.1660  -51.8404  -58.3190 C.3       7 UNK        -0.1963 
     37 N          28.6868  -49.9941  -57.7039 N.am      7 UNK        -0.4444 
     38 C          28.2552  -48.8223  -58.1951 C.2       7 UNK         0.5104 
     39 O          27.0662  -48.5079  -58.2532 O.2       7 UNK        -0.5100 
     40 CA         29.3211  -47.8191  -58.6612 C.3       6 UNK         0.0396 
     41 CB         28.8258  -46.3621  -58.5912 C.3       6 UNK        -0.1801 
     42 N          30.5778  -47.9511  -57.9148 N.am      6 UNK        -0.4747 
     43 C          31.7851  -47.6951  -58.4418 C.2       6 UNK         0.5012 
     44 O          31.9509  -47.3791  -59.6213 O.2       6 UNK        -0.5003 
     45 CA         33.0223  -47.8238  -57.5210 C.3       5 UNK         0.0782 
     46 C46        33.4077  -46.4773  -56.8667 C.3       11 UNK        -0.0868 
     47 S47        33.9442  -45.1725  -58.0267 S.3       11 UNK        -0.2515 
     48 C48        32.5261  -44.0236  -57.9896 C.3       11 UNK         0.0199 
     49 N          32.8704  -48.8547  -56.4898 N.am      5 UNK        -0.4607 
     50 C          32.6989  -50.1603  -56.7238 C.2       4 UNK         0.5031 
     51 O          32.6854  -50.6557  -57.8506 O.2       4 UNK        -0.5119 
     52 CA         32.4969  -51.0802  -55.5076 C.3       4 UNK         0.0263 
     53 CB         33.8334  -51.7309  -55.1153 C.3       4 UNK        -0.1967 
     54 N          31.8967  -50.4759  -54.3107 N.am      4 UNK        -0.4237 
     55 C          30.7588  -49.7690  -54.2389 C.2       3 UNK         0.4908 
     56 O          30.1328  -49.3411  -55.2098 O.2       3 UNK        -0.5102 
     57 CA         30.2013  -49.5486  -52.8309 C.3       3 UNK         0.0241 
     58 CB         29.7417  -50.9042  -52.2454 C.3       3 UNK        -0.1971 
     59 N          31.1836  -48.8809  -51.9730 N.am      3 UNK        -0.4139 
     60 C          30.9589  -48.4882  -50.7084 C.2       2 UNK         0.5016 
     61 O          29.8924  -48.6523  -50.1146 O.2       2 UNK        -0.5319 
     62 CA         32.1085  -47.7857  -49.9623 C.3       2 UNK         0.0286 
     63 CB         32.9402  -48.8094  -49.1724 C.3       2 UNK        -0.1963 
     64 N          32.9945  -47.0210  -50.8391 N.am      2 UNK        -0.4790 
     65 C          32.6332  -45.9274  -51.5260 C.2       1 UNK         0.5024 
     66 O          31.5284  -45.3953  -51.4168 O.2       1 UNK        -0.4888 
     67 H67        35.8670  -49.1414  -53.3372 H         1 UNK         0.0892 
     68 H68        35.8353  -48.4254  -54.9507 H         1 UNK         0.0892 
     69 H69        36.7465  -47.6437  -53.6574 H         1 UNK         0.0892 
     70 H70        35.6829  -45.9145  -52.6949 H         1 UNK         0.3107 
     71 H71        33.1193  -45.0951  -53.4135 H         1 UNK         0.0773 
     72 H72        33.4136  -43.3590  -51.5502 H         1 UNK         0.0680 
     73 H73        34.8506  -44.1996  -51.0443 H         1 UNK         0.0680 
     74 H74        34.4994  -41.0640  -54.2976 H         1 UNK         0.0650 
     75 H75        33.5640  -41.2820  -52.8393 H         1 UNK         0.0650 
     76 H76        34.1257  -42.6387  -56.2741 H         1 UNK         0.1397 
     77 H77        30.2480  -44.4086  -56.5757 H         1 UNK         0.1363 
     78 H78        31.4482  -42.4800  -52.9325 H         1 UNK         0.1355 
     79 H79        28.8546  -42.8546  -53.6992 H         1 UNK         0.0707 
     80 H80        29.5853  -44.2940  -53.0400 H         1 UNK         0.0707 
     81 H81        27.9946  -43.8493  -57.0815 H         1 UNK         0.1034 
     82 H82        27.7760  -42.6586  -55.8347 H         1 UNK         0.1034 
     83 H83        25.5162  -43.4906  -55.3331 H         1 UNK         0.0482 
     84 H84        24.9274  -44.1134  -58.7152 H         1 UNK         0.3460 
     85 H85        24.6569  -42.4458  -59.1579 H         1 UNK         0.3460 
     86 H86        26.2799  -45.8355  -56.6880 H         1 UNK         0.2989 
     87 H87        23.1512  -47.4246  -56.2199 H         1 UNK         0.0559 
     88 H88        23.1134  -46.9631  -58.6366 H         1 UNK         0.0848 
     89 H89        23.8436  -48.5362  -58.3557 H         1 UNK         0.0848 
     90 H90        24.8561  -47.1489  -58.7512 H         1 UNK         0.0848 
     91 H91        25.8669  -48.3072  -56.7258 H         1 UNK         0.3144 
     92 H92        27.1969  -48.1747  -53.8439 H         1 UNK         0.0727 
     93 H93        26.9784  -50.4193  -52.7143 H         1 UNK         0.0790 
     94 H94        25.3633  -50.5875  -53.3944 H         1 UNK         0.0790 
     95 H95        25.7109  -49.3046  -52.2468 H         1 UNK         0.0790 
     96 H96        28.2355  -49.3277  -55.4044 H         1 UNK         0.3215 
     97 H97        28.5474  -51.7824  -56.6778 H         1 UNK         0.0863 
     98 H98        27.8865  -52.1751  -59.0653 H         1 UNK         0.0808 
     99 H99        26.4293  -51.2124  -58.8214 H         1 UNK         0.0808 
    100 H100       26.6449  -52.7266  -57.9546 H         1 UNK         0.0808 
    101 H101       29.6863  -50.1401  -57.6657 H         1 UNK         0.3118 
    102 H102       29.4987  -48.0645  -59.7101 H         1 UNK         0.0546 
    103 H103       28.6110  -46.0776  -57.5631 H         1 UNK         0.0828 
    104 H104       29.5649  -45.6677  -58.9888 H         1 UNK         0.0828 
    105 H105       27.9129  -46.2215  -59.1715 H         1 UNK         0.0828 
    106 H106       30.5097  -48.2394  -56.9424 H         1 UNK         0.3005 
    107 H107       33.8515  -48.1371  -58.1594 H         1 UNK         0.1257 
    108 H108       34.2584  -46.6345  -56.2052 H         1 UNK         0.0775 
    109 H109       32.6012  -46.1286  -56.2215 H         1 UNK         0.0775 
    110 H110       32.7531  -43.1594  -58.6153 H         1 UNK         0.0840 
    111 H111       31.6646  -44.5133  -58.4450 H         1 UNK         0.0840 
    112 H112       32.8917  -48.5388  -55.5232 H         1 UNK         0.2987 
    113 H113       31.8169  -51.8721  -55.8278 H         1 UNK         0.0785 
    114 H114       33.6957  -52.4967  -54.3518 H         1 UNK         0.0798 
    115 H115       34.5399  -50.9943  -54.7307 H         1 UNK         0.0798 
    116 H116       34.3021  -52.2152  -55.9735 H         1 UNK         0.0798 
    117 H117       32.3249  -50.7421  -53.4365 H         1 UNK         0.3079 
    118 H118       29.3347  -48.8915  -52.9192 H         1 UNK         0.0794 
    119 H119       29.1580  -51.4714  -52.9722 H         1 UNK         0.0786 
    120 H120       29.1066  -50.7729  -51.3699 H         1 UNK         0.0786 
    121 H121       30.5862  -51.5277  -51.9504 H         1 UNK         0.0786 
    122 H122       32.0580  -48.6177  -52.4195 H         1 UNK         0.3032 
    123 H123       31.6561  -47.0892  -49.2523 H         1 UNK         0.1094 
    124 H124       33.7049  -48.3197  -48.5691 H         1 UNK         0.0794 
    125 H125       32.3089  -49.3805  -48.4899 H         1 UNK         0.0794 
    126 H126       33.4360  -49.5233  -49.8314 H         1 UNK         0.0794 
    127 H127       33.9251  -47.3851  -50.9830 H         1 UNK         0.3016 
@<TRIPOS>BOND
     1    1    2 1    
     2    1   67 1    
     3    1   68 1    
     4    1   69 1    
     5    2    3 2    
     6    2    4 am   BACKBONE|DICT|INTERRES
     7    4    5 1    
     8    4   70 1    
     9    5    6 1    
    10    5   65 1    
    11    5   71 1    
    12    6    7 1    
    13    6   72 1    
    14    6   73 1    
    15    7    8 1    
    16    8    9 1    
    17    8   74 1    
    18    8   75 1    
    19    9   10 ar   
    20    9   14 ar   
    21   10   11 ar   
    22   10   76 1    
    23   11   12 ar   
    24   11   48 1    
    25   12   13 ar   
    26   12   77 1    
    27   13   14 ar   
    28   13   15 1    
    29   14   78 1    
    30   15   16 1    
    31   15   79 1    
    32   15   80 1    
    33   16   17 1    
    34   17   18 1    
    35   17   81 1    
    36   17   82 1    
    37   18   19 1    
    38   18   22 1    
    39   18   83 1    
    40   19   20 am   BACKBONE|DICT|INTERRES
    41   19   21 2    
    42   20   84 1    
    43   20   85 1    
    44   22   23 am   BACKBONE|DICT|INTERRES
    45   22   86 1    
    46   23   24 2    
    47   23   25 1    
    48   25   26 1    
    49   25   27 1    
    50   25   87 1    
    51   26   88 1    
    52   26   89 1    
    53   26   90 1    
    54   27   28 am   BACKBONE|DICT|INTERRES
    55   27   91 1    
    56   28   29 2    
    57   28   30 1    
    58   30   31 1    
    59   30   32 1    
    60   30   92 1    
    61   31   93 1    
    62   31   94 1    
    63   31   95 1    
    64   32   33 am   BACKBONE|DICT|INTERRES
    65   32   96 1    
    66   33   34 2    
    67   33   35 1    
    68   35   36 1    
    69   35   37 1    
    70   35   97 1    
    71   36   98 1    
    72   36   99 1    
    73   36  100 1    
    74   37   38 am   BACKBONE|DICT|INTERRES
    75   37  101 1    
    76   38   39 2    
    77   38   40 1    
    78   40   41 1    
    79   40   42 1    
    80   40  102 1    
    81   41  103 1    
    82   41  104 1    
    83   41  105 1    
    84   42   43 am   BACKBONE|DICT|INTERRES
    85   42  106 1    
    86   43   44 2    
    87   43   45 1    
    88   45   46 1    
    89   45   49 1    
    90   45  107 1    
    91   46   47 1    
    92   46  108 1    
    93   46  109 1    
    94   47   48 1    
    95   48  110 1    
    96   48  111 1    
    97   49   50 am   BACKBONE|DICT|INTERRES
    98   49  112 1    
    99   50   51 2    
   100   50   52 1    
   101   52   53 1    
   102   52   54 1    
   103   52  113 1    
   104   53  114 1    
   105   53  115 1    
   106   53  116 1    
   107   54   55 am   BACKBONE|DICT|INTERRES
   108   54  117 1    
   109   55   56 2    
   110   55   57 1    
   111   57   58 1    
   112   57   59 1    
   113   57  118 1    
   114   58  119 1    
   115   58  120 1    
   116   58  121 1    
   117   59   60 am   BACKBONE|DICT|INTERRES
   118   59  122 1    
   119   60   61 2    
   120   60   62 1    
   121   62   63 1    
   122   62   64 1    
   123   62  123 1    
   124   63  124 1    
   125   63  125 1    
   126   63  126 1    
   127   64   65 am   BACKBONE|DICT|INTERRES
   128   64  127 1    
   129   65   66 2    
@<TRIPOS>SUBSTRUCTURE
     1 UNK         1 GROUP             0       ****    0 ROOT    
