@<TRIPOS>MOLECULE
3R134
127   129    1
SMALL
USER_CHARGES


@<TRIPOS>ATOM
      1 CA         34.1038  -47.9523  -49.5379 C.3       0 UNK        -0.1968 
      2 C          34.6625  -47.5239  -50.8864 C.2       0 UNK         0.4852 
      3 O          35.8704  -47.6197  -51.1105 O.2       0 UNK        -0.5359 
      4 N          33.7908  -47.0603  -51.7880 N.am      1 UNK        -0.4300 
      5 CA         34.1003  -46.7195  -53.1737 C.3       1 UNK         0.0863 
      6 C6         33.3083  -45.4599  -53.5901 C.3       11 UNK        -0.0953 
      7 S7         33.7928  -44.7635  -55.1996 S.3       11 UNK        -0.2369 
      8 C8         33.4341  -42.9960  -54.9378 C.3       11 UNK         0.0226 
      9 C9         31.9527  -42.6634  -55.0855 C.ar      11 UNK        -0.0699 
     10 C10        31.1007  -42.6633  -53.9742 C.ar      11 UNK        -0.0804 
     11 C11        29.7576  -42.2890  -54.1081 C.ar      11 UNK        -0.0871 
     12 C12        29.2730  -41.9080  -55.3649 C.ar      11 UNK        -0.1008 
     13 C13        30.1139  -41.8970  -56.4809 C.ar      11 UNK        -0.0735 
     14 C14        31.4492  -42.2853  -56.3343 C.ar      11 UNK        -0.0945 
     15 C15        29.6091  -41.3900  -57.8275 C.3       11 UNK         0.0169 
     16 S16        28.7893  -42.6820  -58.8164 S.3       11 UNK        -0.2669 
     17 C17        27.0684  -42.6240  -58.2049 C.3       11 UNK        -0.0850 
     18 CA         26.6927  -43.8470  -57.3201 C.3       10 UNK         0.0855 
     19 C          25.3185  -43.6766  -56.6054 C.2       10 UNK         0.5543 
     20 N          24.5067  -44.7179  -56.4618 N.am      10 UNK        -0.7343 
     21 O          24.9958  -42.5877  -56.1376 O.2       10 UNK        -0.5027 
     22 N          26.8771  -45.1502  -57.9803 N.am      10 UNK        -0.4495 
     23 C          26.2715  -45.5903  -59.0920 C.2       10 UNK         0.4903 
     24 O          25.5002  -44.9152  -59.7738 O.2       10 UNK        -0.4860 
     25 CA         26.5517  -47.0479  -59.5060 C.3       9 UNK         0.0227 
     26 CB         27.6684  -47.0963  -60.5602 C.3       9 UNK        -0.1964 
     27 N          26.8923  -47.9131  -58.3678 N.am      9 UNK        -0.4231 
     28 C          26.0059  -48.2896  -57.4304 C.2       9 UNK         0.5014 
     29 O          24.8097  -47.9990  -57.4881 O.2       9 UNK        -0.5270 
     30 CA         26.5124  -49.0474  -56.1876 C.3       8 UNK         0.0284 
     31 CB         25.6357  -50.2667  -55.8293 C.3       8 UNK        -0.1977 
     32 N          27.9453  -49.3635  -56.2094 N.am      8 UNK        -0.4342 
     33 C          28.5870  -50.3666  -56.8253 C.2       8 UNK         0.5039 
     34 O          28.0301  -51.2505  -57.4768 O.2       8 UNK        -0.5547 
     35 CA         30.1279  -50.3622  -56.6865 C.3       7 UNK         0.0281 
     36 CB         30.8200  -51.1976  -57.7853 C.3       7 UNK        -0.1963 
     37 N          30.7064  -49.0103  -56.6142 N.am      7 UNK        -0.4444 
     38 C          30.5551  -48.0360  -57.5225 C.2       7 UNK         0.5104 
     39 O          29.9374  -48.1742  -58.5780 O.2       7 UNK        -0.5100 
     40 CA         31.1020  -46.6569  -57.1167 C.3       6 UNK         0.0396 
     41 CB         30.7558  -45.5594  -58.1378 C.3       6 UNK        -0.1801 
     42 N          30.6731  -46.2675  -55.7652 N.am      6 UNK        -0.4747 
     43 C          29.4189  -46.1950  -55.2950 C.2       6 UNK         0.5012 
     44 O          28.4181  -46.4397  -55.9681 O.2       6 UNK        -0.5003 
     45 CA         29.2489  -45.9140  -53.7961 C.3       5 UNK         0.0782 
     46 C46        28.1016  -44.9124  -53.5037 C.3       11 UNK        -0.0868 
     47 S47        28.5536  -43.8509  -52.0935 S.3       11 UNK        -0.2515 
     48 C48        28.8325  -42.2333  -52.8936 C.3       11 UNK         0.0199 
     49 N          29.0125  -47.2096  -53.1611 N.am      5 UNK        -0.4607 
     50 C          29.8790  -47.8783  -52.3918 C.2       4 UNK         0.5031 
     51 O          30.9596  -47.4248  -52.0156 O.2       4 UNK        -0.5119 
     52 CA         29.4889  -49.3052  -51.9795 C.3       4 UNK         0.0263 
     53 CB         28.0305  -49.6905  -52.3335 C.3       4 UNK        -0.1967 
     54 N          30.4366  -50.2437  -52.5858 N.am      4 UNK        -0.4237 
     55 C          30.5917  -51.5227  -52.2136 C.2       3 UNK         0.4908 
     56 O          29.9747  -52.0356  -51.2788 O.2       3 UNK        -0.5102 
     57 CA         31.5697  -52.4080  -53.0135 C.3       3 UNK         0.0241 
     58 CB         30.7956  -53.3923  -53.9082 C.3       3 UNK        -0.1971 
     59 N          32.5433  -51.6769  -53.8314 N.am      3 UNK        -0.4139 
     60 C          33.5920  -51.0096  -53.3336 C.2       2 UNK         0.5016 
     61 O          33.8180  -50.9062  -52.1264 O.2       2 UNK        -0.5319 
     62 CA         34.5626  -50.3388  -54.3271 C.3       2 UNK         0.0286 
     63 CB         34.2126  -50.5229  -55.8215 C.3       2 UNK        -0.1963 
     64 N          34.7273  -48.9251  -53.9789 N.am      2 UNK        -0.4790 
     65 C          33.7716  -47.9851  -53.9882 C.2       1 UNK         0.5024 
     66 O          32.6557  -48.1398  -54.4962 O.2       1 UNK        -0.4888 
     67 H67        34.2861  -49.0151  -49.3802 H         1 UNK         0.0892 
     68 H68        34.5884  -47.3975  -48.7350 H         1 UNK         0.0892 
     69 H69        33.0294  -47.7799  -49.4710 H         1 UNK         0.0892 
     70 H70        32.7928  -47.0983  -51.5890 H         1 UNK         0.3107 
     71 H71        35.1646  -46.4987  -53.2811 H         1 UNK         0.0773 
     72 H72        33.4563  -44.6891  -52.8323 H         1 UNK         0.0680 
     73 H73        32.2457  -45.6614  -53.5955 H         1 UNK         0.0680 
     74 H74        33.8002  -42.6795  -53.9602 H         1 UNK         0.0650 
     75 H75        34.0087  -42.4217  -55.6661 H         1 UNK         0.0650 
     76 H76        31.4854  -42.9350  -53.0006 H         1 UNK         0.1397 
     77 H77        28.2444  -41.5921  -55.4726 H         1 UNK         0.1363 
     78 H78        32.1087  -42.2647  -57.1912 H         1 UNK         0.1355 
     79 H79        30.4485  -41.0042  -58.4080 H         1 UNK         0.0707 
     80 H80        28.9394  -40.5408  -57.6851 H         1 UNK         0.0707 
     81 H81        26.9237  -41.6940  -57.6533 H         1 UNK         0.1034 
     82 H82        26.4002  -42.5554  -59.0641 H         1 UNK         0.1034 
     83 H83        27.4134  -43.8610  -56.5056 H         1 UNK         0.0482 
     84 H84        23.6270  -44.5947  -55.9862 H         1 UNK         0.3460 
     85 H85        24.7520  -45.6190  -56.8446 H         1 UNK         0.3460 
     86 H86        27.4686  -45.7942  -57.4622 H         1 UNK         0.2989 
     87 H87        25.6430  -47.4427  -59.9655 H         1 UNK         0.0559 
     88 H88        27.9066  -48.1209  -60.8459 H         1 UNK         0.0848 
     89 H89        28.5838  -46.6248  -60.2019 H         1 UNK         0.0848 
     90 H90        27.3687  -46.5668  -61.4655 H         1 UNK         0.0848 
     91 H91        27.8705  -48.1616  -58.2615 H         1 UNK         0.3144 
     92 H92        26.4008  -48.3365  -55.3676 H         1 UNK         0.0727 
     93 H93        26.0101  -50.7835  -54.9458 H         1 UNK         0.0790 
     94 H94        25.5855  -50.9864  -56.6465 H         1 UNK         0.0790 
     95 H95        24.6119  -49.9586  -55.6134 H         1 UNK         0.0790 
     96 H96        28.5260  -48.6389  -55.8091 H         1 UNK         0.3215 
     97 H97        30.3407  -50.8309  -55.7270 H         1 UNK         0.0863 
     98 H98        31.9035  -51.1911  -57.6792 H         1 UNK         0.0808 
     99 H99        30.5821  -50.8252  -58.7823 H         1 UNK         0.0808 
    100 H100       30.4994  -52.2394  -57.7448 H         1 UNK         0.0808 
    101 H101       31.2519  -48.7802  -55.7875 H         1 UNK         0.3118 
    102 H102       32.1882  -46.7523  -57.0855 H         1 UNK         0.0546 
    103 H103       29.6795  -45.4208  -58.2266 H         1 UNK         0.0828 
    104 H104       31.1345  -45.8098  -59.1292 H         1 UNK         0.0828 
    105 H105       31.1958  -44.6047  -57.8563 H         1 UNK         0.0828 
    106 H106       31.4381  -46.1268  -55.1189 H         1 UNK         0.3005 
    107 H107       30.1753  -45.4770  -53.4335 H         1 UNK         0.1257 
    108 H108       27.8828  -44.2728  -54.3574 H         1 UNK         0.0775 
    109 H109       27.1652  -45.4269  -53.2816 H         1 UNK         0.0775 
    110 H110       27.8622  -41.8164  -53.1688 H         1 UNK         0.0840 
    111 H111       29.2555  -41.5478  -52.1581 H         1 UNK         0.0840 
    112 H112       28.1409  -47.6584  -53.4001 H         1 UNK         0.2987 
    113 H113       29.6031  -49.3519  -50.8945 H         1 UNK         0.0785 
    114 H114       27.7607  -50.6548  -51.9032 H         1 UNK         0.0798 
    115 H115       27.8748  -49.7640  -53.4092 H         1 UNK         0.0798 
    116 H116       27.3174  -48.9681  -51.9338 H         1 UNK         0.0798 
    117 H117       31.0540  -49.8559  -53.2864 H         1 UNK         0.3079 
    118 H118       32.1283  -52.9968  -52.2823 H         1 UNK         0.0794 
    119 H119       30.1227  -54.0109  -53.3124 H         1 UNK         0.0786 
    120 H120       31.4702  -54.0694  -54.4326 H         1 UNK         0.0786 
    121 H121       30.1853  -52.8810  -54.6521 H         1 UNK         0.0786 
    122 H122       32.4394  -51.7339  -54.8333 H         1 UNK         0.3032 
    123 H123       35.5309  -50.8134  -54.1590 H         1 UNK         0.1094 
    124 H124       34.1870  -51.5782  -56.0961 H         1 UNK         0.0794 
    125 H125       33.2514  -50.0854  -56.0830 H         1 UNK         0.0794 
    126 H126       34.9644  -50.0518  -56.4548 H         1 UNK         0.0794 
    127 H127       35.5719  -48.7107  -53.4640 H         1 UNK         0.3016 
@<TRIPOS>BOND
     1    1    2 1    
     2    1   67 1    
     3    1   68 1    
     4    1   69 1    
     5    2    3 2    
     6    2    4 am   BACKBONE|DICT|INTERRES
     7    4    5 1    
     8    4   70 1    
     9    5    6 1    
    10    5   65 1    
    11    5   71 1    
    12    6    7 1    
    13    6   72 1    
    14    6   73 1    
    15    7    8 1    
    16    8    9 1    
    17    8   74 1    
    18    8   75 1    
    19    9   10 ar   
    20    9   14 ar   
    21   10   11 ar   
    22   10   76 1    
    23   11   12 ar   
    24   11   48 1    
    25   12   13 ar   
    26   12   77 1    
    27   13   14 ar   
    28   13   15 1    
    29   14   78 1    
    30   15   16 1    
    31   15   79 1    
    32   15   80 1    
    33   16   17 1    
    34   17   18 1    
    35   17   81 1    
    36   17   82 1    
    37   18   19 1    
    38   18   22 1    
    39   18   83 1    
    40   19   20 am   BACKBONE|DICT|INTERRES
    41   19   21 2    
    42   20   84 1    
    43   20   85 1    
    44   22   23 am   BACKBONE|DICT|INTERRES
    45   22   86 1    
    46   23   24 2    
    47   23   25 1    
    48   25   26 1    
    49   25   27 1    
    50   25   87 1    
    51   26   88 1    
    52   26   89 1    
    53   26   90 1    
    54   27   28 am   BACKBONE|DICT|INTERRES
    55   27   91 1    
    56   28   29 2    
    57   28   30 1    
    58   30   31 1    
    59   30   32 1    
    60   30   92 1    
    61   31   93 1    
    62   31   94 1    
    63   31   95 1    
    64   32   33 am   BACKBONE|DICT|INTERRES
    65   32   96 1    
    66   33   34 2    
    67   33   35 1    
    68   35   36 1    
    69   35   37 1    
    70   35   97 1    
    71   36   98 1    
    72   36   99 1    
    73   36  100 1    
    74   37   38 am   BACKBONE|DICT|INTERRES
    75   37  101 1    
    76   38   39 2    
    77   38   40 1    
    78   40   41 1    
    79   40   42 1    
    80   40  102 1    
    81   41  103 1    
    82   41  104 1    
    83   41  105 1    
    84   42   43 am   BACKBONE|DICT|INTERRES
    85   42  106 1    
    86   43   44 2    
    87   43   45 1    
    88   45   46 1    
    89   45   49 1    
    90   45  107 1    
    91   46   47 1    
    92   46  108 1    
    93   46  109 1    
    94   47   48 1    
    95   48  110 1    
    96   48  111 1    
    97   49   50 am   BACKBONE|DICT|INTERRES
    98   49  112 1    
    99   50   51 2    
   100   50   52 1    
   101   52   53 1    
   102   52   54 1    
   103   52  113 1    
   104   53  114 1    
   105   53  115 1    
   106   53  116 1    
   107   54   55 am   BACKBONE|DICT|INTERRES
   108   54  117 1    
   109   55   56 2    
   110   55   57 1    
   111   57   58 1    
   112   57   59 1    
   113   57  118 1    
   114   58  119 1    
   115   58  120 1    
   116   58  121 1    
   117   59   60 am   BACKBONE|DICT|INTERRES
   118   59  122 1    
   119   60   61 2    
   120   60   62 1    
   121   62   63 1    
   122   62   64 1    
   123   62  123 1    
   124   63  124 1    
   125   63  125 1    
   126   63  126 1    
   127   64   65 am   BACKBONE|DICT|INTERRES
   128   64  127 1    
   129   65   66 2    
@<TRIPOS>SUBSTRUCTURE
     1 UNK         1 GROUP             0       ****    0 ROOT    
