@<TRIPOS>MOLECULE
3R134
127   129    1
SMALL
USER_CHARGES


@<TRIPOS>ATOM
      1 CA         36.8935  -46.2785  -55.8852 C.3       0 UNK        -0.1968 
      2 C          35.6334  -46.5188  -55.0692 C.2       0 UNK         0.4852 
      3 O          35.0081  -47.5714  -55.2112 O.2       0 UNK        -0.5359 
      4 N          35.2651  -45.5610  -54.2047 N.am      1 UNK        -0.4300 
      5 CA         34.0543  -45.5569  -53.3664 C.3       1 UNK         0.0863 
      6 C6         33.9431  -44.2759  -52.5046 C.3       11 UNK        -0.0953 
      7 S7         33.9509  -42.7592  -53.5187 S.3       11 UNK        -0.2369 
      8 C8         32.3286  -42.0218  -53.1329 C.3       11 UNK         0.0226 
      9 C9         31.1538  -42.8431  -53.6519 C.ar      11 UNK        -0.0699 
     10 C10        30.1568  -43.2790  -52.7716 C.ar      11 UNK        -0.0804 
     11 C11        29.0576  -44.0040  -53.2442 C.ar      11 UNK        -0.0871 
     12 C12        28.9565  -44.2798  -54.6115 C.ar      11 UNK        -0.1008 
     13 C13        29.9461  -43.8560  -55.4997 C.ar      11 UNK        -0.0735 
     14 C14        31.0407  -43.1341  -55.0159 C.ar      11 UNK        -0.0945 
     15 C15        29.8364  -44.1963  -56.9770 C.3       11 UNK         0.0169 
     16 S16        28.9238  -42.9246  -57.9001 S.3       11 UNK        -0.2669 
     17 C17        29.0888  -43.5861  -59.5948 C.3       11 UNK        -0.0850 
     18 CA         27.7839  -43.4850  -60.4395 C.3       10 UNK         0.0855 
     19 C          28.0105  -43.9058  -61.9250 C.2       10 UNK         0.5543 
     20 N          27.0412  -44.5166  -62.5958 N.am      10 UNK        -0.7343 
     21 O          29.0692  -43.6472  -62.4925 O.2       10 UNK        -0.5027 
     22 N          26.6026  -44.1023  -59.8039 N.am      10 UNK        -0.4495 
     23 C          26.4672  -45.3864  -59.4501 C.2       10 UNK         0.4903 
     24 O          27.3479  -46.2409  -59.5656 O.2       10 UNK        -0.4860 
     25 CA         25.0830  -45.7969  -58.9215 C.3       9 UNK         0.0227 
     26 CB         24.3262  -46.6275  -59.9707 C.3       9 UNK        -0.1964 
     27 N          25.2003  -46.5721  -57.6891 N.am      9 UNK        -0.4231 
     28 C          25.5369  -46.0669  -56.4979 C.2       9 UNK         0.5014 
     29 O          25.7004  -44.8648  -56.2881 O.2       9 UNK        -0.5270 
     30 CA         25.7338  -47.0540  -55.3367 C.3       8 UNK         0.0284 
     31 CB         24.4184  -47.3034  -54.5747 C.3       8 UNK        -0.1977 
     32 N          26.3962  -48.3102  -55.7077 N.am      8 UNK        -0.4342 
     33 C          25.9427  -49.3448  -56.4285 C.2       8 UNK         0.5039 
     34 O          24.8541  -49.3588  -57.0037 O.2       8 UNK        -0.5547 
     35 CA         26.8714  -50.5685  -56.5301 C.3       7 UNK         0.0281 
     36 CB         27.7790  -50.4597  -57.7664 C.3       7 UNK        -0.1963 
     37 N          27.6934  -50.7340  -55.3259 N.am      7 UNK        -0.4444 
     38 C          27.2424  -51.2325  -54.1639 C.2       7 UNK         0.5104 
     39 O          26.1258  -51.7306  -54.0192 O.2       7 UNK        -0.5100 
     40 CA         28.1840  -51.1295  -52.9491 C.3       6 UNK         0.0396 
     41 CB         29.1174  -52.3478  -52.8749 C.3       6 UNK        -0.1801 
     42 N          28.9679  -49.8895  -52.9719 N.am      6 UNK        -0.4747 
     43 C          28.4499  -48.6803  -52.6934 C.2       6 UNK         0.5012 
     44 O          27.3066  -48.5236  -52.2652 O.2       6 UNK        -0.5003 
     45 CA         29.3047  -47.4323  -53.0058 C.3       5 UNK         0.0782 
     46 C46        29.7785  -46.6756  -51.7399 C.3       11 UNK        -0.0868 
     47 S47        28.5438  -45.5805  -50.9548 S.3       11 UNK        -0.2515 
     48 C48        27.9615  -44.4753  -52.2927 C.3       11 UNK         0.0199 
     49 N          30.4225  -47.7145  -53.9144 N.am      5 UNK        -0.4607 
     50 C          30.2682  -47.9395  -55.2255 C.2       4 UNK         0.5031 
     51 O          29.1702  -47.9256  -55.7772 O.2       4 UNK        -0.5119 
     52 CA         31.5096  -48.2832  -56.0633 C.3       4 UNK         0.0263 
     53 CB         32.0588  -47.0346  -56.7675 C.3       4 UNK        -0.1967 
     54 N          32.5839  -48.9454  -55.3201 N.am      4 UNK        -0.4237 
     55 C          32.4877  -50.1703  -54.7826 C.2       3 UNK         0.4908 
     56 O          31.4367  -50.8092  -54.7375 O.2       3 UNK        -0.5102 
     57 CA         33.7694  -50.7852  -54.2037 C.3       3 UNK         0.0241 
     58 CB         34.7083  -51.2417  -55.3329 C.3       3 UNK        -0.1971 
     59 N          34.4641  -49.8217  -53.3528 N.am      3 UNK        -0.4139 
     60 C          34.4783  -49.8568  -52.0133 C.2       2 UNK         0.5016 
     61 O          34.0116  -50.7790  -51.3432 O.2       2 UNK        -0.5319 
     62 CA         35.0999  -48.6475  -51.2848 C.3       2 UNK         0.0286 
     63 CB         36.5619  -48.9398  -50.9107 C.3       2 UNK        -0.1963 
     64 N          35.0396  -47.3908  -52.0412 N.am      2 UNK        -0.4790 
     65 C          33.9119  -46.8101  -52.4792 C.2       1 UNK         0.5024 
     66 O          32.7906  -47.2628  -52.2595 O.2       1 UNK        -0.4888 
     67 H67        37.3508  -45.3160  -55.6572 H         1 UNK         0.0892 
     68 H68        37.6250  -47.0600  -55.6824 H         1 UNK         0.0892 
     69 H69        36.6581  -46.2996  -56.9488 H         1 UNK         0.0892 
     70 H70        35.8218  -44.7200  -54.1432 H         1 UNK         0.3107 
     71 H71        33.2023  -45.5671  -54.0478 H         1 UNK         0.0773 
     72 H72        34.7720  -44.2150  -51.7970 H         1 UNK         0.0680 
     73 H73        33.0316  -44.2976  -51.9035 H         1 UNK         0.0680 
     74 H74        32.2569  -41.8724  -52.0544 H         1 UNK         0.0650 
     75 H75        32.2833  -41.0290  -53.5823 H         1 UNK         0.0650 
     76 H76        30.2311  -43.0548  -51.7162 H         1 UNK         0.1397 
     77 H77        28.1067  -44.8270  -54.9947 H         1 UNK         0.1363 
     78 H78        31.8058  -42.7953  -55.7011 H         1 UNK         0.1355 
     79 H79        30.8337  -44.2993  -57.4066 H         1 UNK         0.0707 
     80 H80        29.3378  -45.1596  -57.1025 H         1 UNK         0.0707 
     81 H81        29.4304  -44.6217  -59.5591 H         1 UNK         0.1034 
     82 H82        29.8946  -43.0282  -60.0754 H         1 UNK         0.1034 
     83 H83        27.5379  -42.4244  -60.5016 H         1 UNK         0.0482 
     84 H84        27.1931  -44.7741  -63.5584 H         1 UNK         0.3460 
     85 H85        26.1625  -44.7222  -62.1496 H         1 UNK         0.3460 
     86 H86        25.8169  -43.4820  -59.6696 H         1 UNK         0.2989 
     87 H87        24.4970  -44.9003  -58.7074 H         1 UNK         0.0559 
     88 H88        24.8593  -47.5464  -60.2193 H         1 UNK         0.0848 
     89 H89        24.1958  -46.0652  -60.8961 H         1 UNK         0.0848 
     90 H90        23.3322  -46.9029  -59.6176 H         1 UNK         0.0848 
     91 H91        25.0763  -47.5791  -57.7488 H         1 UNK         0.3144 
     92 H92        26.4180  -46.5714  -54.6387 H         1 UNK         0.0727 
     93 H93        23.6631  -47.7745  -55.2042 H         1 UNK         0.0790 
     94 H94        23.9973  -46.3652  -54.2111 H         1 UNK         0.0790 
     95 H95        24.5815  -47.9438  -53.7075 H         1 UNK         0.0790 
     96 H96        27.3839  -48.3442  -55.4668 H         1 UNK         0.3215 
     97 H97        26.2418  -51.4534  -56.6475 H         1 UNK         0.0863 
     98 H98        28.4243  -49.5817  -57.7249 H         1 UNK         0.0808 
     99 H99        27.1842  -50.3799  -58.6774 H         1 UNK         0.0808 
    100 H100       28.4145  -51.3391  -57.8710 H         1 UNK         0.0808 
    101 H101       28.6283  -50.3519  -55.3534 H         1 UNK         0.3118 
    102 H102       27.5688  -51.1294  -52.0466 H         1 UNK         0.0546 
    103 H103       29.8129  -52.2685  -52.0394 H         1 UNK         0.0828 
    104 H104       29.6997  -52.4738  -53.7875 H         1 UNK         0.0828 
    105 H105       28.5432  -53.2642  -52.7329 H         1 UNK         0.0828 
    106 H106       29.9086  -49.9510  -53.3439 H         1 UNK         0.3005 
    107 H107       28.6321  -46.7744  -53.5519 H         1 UNK         0.1257 
    108 H108       30.6139  -46.0233  -51.9939 H         1 UNK         0.0775 
    109 H109       30.1687  -47.3693  -50.9930 H         1 UNK         0.0775 
    110 H110       27.1673  -44.9852  -52.8399 H         1 UNK         0.0840 
    111 H111       27.4922  -43.6012  -51.8394 H         1 UNK         0.0840 
    112 H112       31.3485  -47.7323  -53.4976 H         1 UNK         0.2987 
    113 H113       31.1853  -48.9816  -56.8380 H         1 UNK         0.0785 
    114 H114       32.9636  -47.2591  -57.3328 H         1 UNK         0.0798 
    115 H115       31.3281  -46.6471  -57.4770 H         1 UNK         0.0798 
    116 H116       32.2919  -46.2367  -56.0631 H         1 UNK         0.0798 
    117 H117       33.4872  -48.4719  -55.3140 H         1 UNK         0.3079 
    118 H118       33.4819  -51.6679  -53.6284 H         1 UNK         0.0794 
    119 H119       35.5914  -51.7398  -54.9324 H         1 UNK         0.0786 
    120 H120       35.0470  -50.4049  -55.9454 H         1 UNK         0.0786 
    121 H121       34.2081  -51.9508  -55.9940 H         1 UNK         0.0786 
    122 H122       34.8495  -49.0059  -53.8183 H         1 UNK         0.3032 
    123 H123       34.5299  -48.5034  -50.3642 H         1 UNK         0.1094 
    124 H124       37.1876  -49.0655  -51.7953 H         1 UNK         0.0794 
    125 H125       36.9867  -48.1367  -50.3081 H         1 UNK         0.0794 
    126 H126       36.6389  -49.8566  -50.3243 H         1 UNK         0.0794 
    127 H127       35.9208  -46.9602  -52.2820 H         1 UNK         0.3016 
@<TRIPOS>BOND
     1    1    2 1    
     2    1   67 1    
     3    1   68 1    
     4    1   69 1    
     5    2    3 2    
     6    2    4 am   BACKBONE|DICT|INTERRES
     7    4    5 1    
     8    4   70 1    
     9    5    6 1    
    10    5   65 1    
    11    5   71 1    
    12    6    7 1    
    13    6   72 1    
    14    6   73 1    
    15    7    8 1    
    16    8    9 1    
    17    8   74 1    
    18    8   75 1    
    19    9   10 ar   
    20    9   14 ar   
    21   10   11 ar   
    22   10   76 1    
    23   11   12 ar   
    24   11   48 1    
    25   12   13 ar   
    26   12   77 1    
    27   13   14 ar   
    28   13   15 1    
    29   14   78 1    
    30   15   16 1    
    31   15   79 1    
    32   15   80 1    
    33   16   17 1    
    34   17   18 1    
    35   17   81 1    
    36   17   82 1    
    37   18   19 1    
    38   18   22 1    
    39   18   83 1    
    40   19   20 am   BACKBONE|DICT|INTERRES
    41   19   21 2    
    42   20   84 1    
    43   20   85 1    
    44   22   23 am   BACKBONE|DICT|INTERRES
    45   22   86 1    
    46   23   24 2    
    47   23   25 1    
    48   25   26 1    
    49   25   27 1    
    50   25   87 1    
    51   26   88 1    
    52   26   89 1    
    53   26   90 1    
    54   27   28 am   BACKBONE|DICT|INTERRES
    55   27   91 1    
    56   28   29 2    
    57   28   30 1    
    58   30   31 1    
    59   30   32 1    
    60   30   92 1    
    61   31   93 1    
    62   31   94 1    
    63   31   95 1    
    64   32   33 am   BACKBONE|DICT|INTERRES
    65   32   96 1    
    66   33   34 2    
    67   33   35 1    
    68   35   36 1    
    69   35   37 1    
    70   35   97 1    
    71   36   98 1    
    72   36   99 1    
    73   36  100 1    
    74   37   38 am   BACKBONE|DICT|INTERRES
    75   37  101 1    
    76   38   39 2    
    77   38   40 1    
    78   40   41 1    
    79   40   42 1    
    80   40  102 1    
    81   41  103 1    
    82   41  104 1    
    83   41  105 1    
    84   42   43 am   BACKBONE|DICT|INTERRES
    85   42  106 1    
    86   43   44 2    
    87   43   45 1    
    88   45   46 1    
    89   45   49 1    
    90   45  107 1    
    91   46   47 1    
    92   46  108 1    
    93   46  109 1    
    94   47   48 1    
    95   48  110 1    
    96   48  111 1    
    97   49   50 am   BACKBONE|DICT|INTERRES
    98   49  112 1    
    99   50   51 2    
   100   50   52 1    
   101   52   53 1    
   102   52   54 1    
   103   52  113 1    
   104   53  114 1    
   105   53  115 1    
   106   53  116 1    
   107   54   55 am   BACKBONE|DICT|INTERRES
   108   54  117 1    
   109   55   56 2    
   110   55   57 1    
   111   57   58 1    
   112   57   59 1    
   113   57  118 1    
   114   58  119 1    
   115   58  120 1    
   116   58  121 1    
   117   59   60 am   BACKBONE|DICT|INTERRES
   118   59  122 1    
   119   60   61 2    
   120   60   62 1    
   121   62   63 1    
   122   62   64 1    
   123   62  123 1    
   124   63  124 1    
   125   63  125 1    
   126   63  126 1    
   127   64   65 am   BACKBONE|DICT|INTERRES
   128   64  127 1    
   129   65   66 2    
@<TRIPOS>SUBSTRUCTURE
     1 UNK         1 GROUP             0       ****    0 ROOT    
