@<TRIPOS>MOLECULE
3R134
127   129    1
SMALL
USER_CHARGES


@<TRIPOS>ATOM
      1 CA         28.9204  -45.3291  -50.8100 C.3       0 UNK        -0.1968 
      2 C          30.3590  -45.4341  -50.3240 C.2       0 UNK         0.4852 
      3 O          30.5921  -45.5334  -49.1181 O.2       0 UNK        -0.5359 
      4 N          31.3212  -45.4069  -51.2541 N.am      1 UNK        -0.4300 
      5 CA         32.7542  -45.5740  -50.9892 C.3       1 UNK         0.0863 
      6 C6         33.6107  -45.0322  -52.1614 C.3       11 UNK        -0.0953 
      7 S7         33.4013  -43.2330  -52.3631 S.3       11 UNK        -0.2369 
      8 C8         33.7431  -43.0167  -54.1425 C.3       11 UNK         0.0226 
      9 C9         32.6810  -43.5847  -55.0846 C.ar      11 UNK        -0.0699 
     10 C10        33.0709  -44.0289  -56.3518 C.ar      11 UNK        -0.0804 
     11 C11        32.1297  -44.5075  -57.2687 C.ar      11 UNK        -0.0871 
     12 C12        30.7799  -44.5494  -56.9037 C.ar      11 UNK        -0.1008 
     13 C13        30.3731  -44.1140  -55.6393 C.ar      11 UNK        -0.0735 
     14 C14        31.3246  -43.6256  -54.7394 C.ar      11 UNK        -0.0945 
     15 C15        28.9088  -44.1719  -55.2342 C.3       11 UNK         0.0169 
     16 S16        28.1053  -42.5453  -55.3722 S.3       11 UNK        -0.2669 
     17 C17        27.6918  -42.4805  -57.1504 C.3       11 UNK        -0.0850 
     18 CA         26.1836  -42.7387  -57.4110 C.3       10 UNK         0.0855 
     19 C          25.8100  -42.4897  -58.9028 C.2       10 UNK         0.5543 
     20 N          25.2102  -43.4351  -59.6179 N.am      10 UNK        -0.7343 
     21 O          26.0630  -41.4056  -59.4224 O.2       10 UNK        -0.5027 
     22 N          25.7685  -44.0535  -56.8997 N.am      10 UNK        -0.4495 
     23 C          24.5398  -44.3670  -56.4740 C.2       10 UNK         0.4903 
     24 O          23.6139  -43.5582  -56.3931 O.2       10 UNK        -0.4860 
     25 CA         24.3179  -45.8430  -56.0816 C.3       9 UNK         0.0227 
     26 CB         22.8278  -46.2442  -56.0901 C.3       9 UNK        -0.1964 
     27 N          25.1106  -46.7885  -56.8823 N.am      9 UNK        -0.4231 
     28 C          25.0873  -46.9347  -58.2196 C.2       9 UNK         0.5014 
     29 O          24.3938  -46.2434  -58.9671 O.2       9 UNK        -0.5270 
     30 CA         26.0155  -47.9912  -58.8500 C.3       8 UNK         0.0284 
     31 CB         27.1156  -47.3061  -59.6792 C.3       8 UNK        -0.1977 
     32 N          26.6334  -48.8836  -57.8652 N.am      8 UNK        -0.4342 
     33 C          25.9894  -49.8849  -57.2440 C.2       8 UNK         0.5039 
     34 O          24.8331  -50.2138  -57.5114 O.2       8 UNK        -0.5547 
     35 CA         26.7303  -50.6346  -56.1188 C.3       7 UNK         0.0281 
     36 CB         27.1789  -52.0220  -56.6046 C.3       7 UNK        -0.1963 
     37 N          27.8847  -49.9117  -55.5753 N.am      7 UNK        -0.4444 
     38 C          27.8186  -48.7435  -54.9163 C.2       7 UNK         0.5104 
     39 O          26.7615  -48.1623  -54.6678 O.2       7 UNK        -0.5100 
     40 CA         29.1507  -48.0689  -54.5338 C.3       6 UNK         0.0396 
     41 CB         29.5192  -48.3965  -53.0816 C.3       6 UNK        -0.1801 
     42 N          30.2741  -48.4124  -55.4138 N.am      6 UNK        -0.4747 
     43 C          30.2904  -48.2152  -56.7435 C.2       6 UNK         0.5012 
     44 O          29.3578  -47.6861  -57.3490 O.2       6 UNK        -0.5003 
     45 CA         31.4911  -48.7723  -57.5460 C.3       5 UNK         0.0782 
     46 C46        32.5207  -47.6726  -57.9043 C.3       11 UNK        -0.0868 
     47 S47        31.9143  -46.5445  -59.2039 S.3       11 UNK        -0.2515 
     48 C48        32.5859  -44.9382  -58.6606 C.3       11 UNK         0.0199 
     49 N          32.1534  -49.9051  -56.8910 N.am      5 UNK        -0.4607 
     50 C          31.5771  -51.0646  -56.5440 C.2       4 UNK         0.5031 
     51 O          30.4024  -51.3407  -56.7845 O.2       4 UNK        -0.5119 
     52 CA         32.4404  -52.0661  -55.7535 C.3       4 UNK         0.0263 
     53 CB         32.9609  -53.1729  -56.6845 C.3       4 UNK        -0.1967 
     54 N          33.5732  -51.4605  -55.0381 N.am      4 UNK        -0.4237 
     55 C          33.4700  -50.5326  -54.0762 C.2       3 UNK         0.4908 
     56 O          32.3993  -50.0485  -53.7000 O.2       3 UNK        -0.5102 
     57 CA         34.7852  -50.0195  -53.4823 C.3       3 UNK         0.0241 
     58 CB         35.4112  -48.9467  -54.3944 C.3       3 UNK        -0.1971 
     59 N          34.5090  -49.4512  -52.1683 N.am      3 UNK        -0.4139 
     60 C          35.3863  -49.2811  -51.1748 C.2       2 UNK         0.5016 
     61 O          36.5763  -49.5925  -51.2571 O.2       2 UNK        -0.5319 
     62 CA         34.8421  -48.6272  -49.8860 C.3       2 UNK         0.0286 
     63 CB         35.9083  -48.5176  -48.7793 C.3       2 UNK        -0.1963 
     64 N          34.2900  -47.2921  -50.1442 N.am      2 UNK        -0.4790 
     65 C          33.0956  -47.0505  -50.7006 C.2       1 UNK         0.5024 
     66 O          32.3119  -47.9485  -51.0170 O.2       1 UNK        -0.4888 
     67 H67        28.4721  -44.4003  -50.4585 H         1 UNK         0.0892 
     68 H68        28.3323  -46.1603  -50.4219 H         1 UNK         0.0892 
     69 H69        28.8540  -45.3495  -51.8970 H         1 UNK         0.0892 
     70 H70        31.0712  -45.3377  -52.2285 H         1 UNK         0.3107 
     71 H71        33.0018  -45.0054  -50.0899 H         1 UNK         0.0773 
     72 H72        33.3526  -45.5413  -53.0924 H         1 UNK         0.0680 
     73 H73        34.6734  -45.2175  -51.9950 H         1 UNK         0.0680 
     74 H74        33.8392  -41.9493  -54.3441 H         1 UNK         0.0650 
     75 H75        34.7165  -43.4603  -54.3582 H         1 UNK         0.0650 
     76 H76        34.1145  -43.9824  -56.6327 H         1 UNK         0.1397 
     77 H77        30.0475  -44.9254  -57.6052 H         1 UNK         0.1363 
     78 H78        30.9986  -43.2639  -53.7743 H         1 UNK         0.1355 
     79 H79        28.8345  -44.5065  -54.1993 H         1 UNK         0.0707 
     80 H80        28.3702  -44.9104  -55.8297 H         1 UNK         0.0707 
     81 H81        28.3075  -43.1862  -57.7094 H         1 UNK         0.1034 
     82 H82        27.9755  -41.4896  -57.5103 H         1 UNK         0.1034 
     83 H83        25.6327  -41.9803  -56.8511 H         1 UNK         0.0482 
     84 H84        24.9641  -44.3316  -59.2127 H         1 UNK         0.3460 
     85 H85        24.9757  -43.2441  -60.5787 H         1 UNK         0.3460 
     86 H86        26.4561  -44.7883  -56.9516 H         1 UNK         0.2989 
     87 H87        24.6795  -45.9399  -55.0568 H         1 UNK         0.0559 
     88 H88        22.6955  -47.2843  -55.7922 H         1 UNK         0.0848 
     89 H89        22.3813  -46.1187  -57.0772 H         1 UNK         0.0848 
     90 H90        22.2525  -45.6337  -55.3931 H         1 UNK         0.0848 
     91 H91        25.7248  -47.3923  -56.3455 H         1 UNK         0.3144 
     92 H92        25.4083  -48.5948  -59.5280 H         1 UNK         0.0727 
     93 H93        27.7990  -48.0339  -60.1170 H         1 UNK         0.0790 
     94 H94        27.7041  -46.6116  -59.0788 H         1 UNK         0.0790 
     95 H95        26.6835  -46.7332  -60.5008 H         1 UNK         0.0790 
     96 H96        27.5865  -48.6603  -57.5932 H         1 UNK         0.3215 
     97 H97        26.0179  -50.7737  -55.3027 H         1 UNK         0.0863 
     98 H98        27.6773  -52.5813  -55.8126 H         1 UNK         0.0808 
     99 H99        27.8656  -51.9502  -57.4488 H         1 UNK         0.0808 
    100 H100       26.3242  -52.6156  -56.9318 H         1 UNK         0.0808 
    101 H101       28.7981  -50.3026  -55.7806 H         1 UNK         0.3118 
    102 H102       28.9999  -46.9917  -54.6083 H         1 UNK         0.0546 
    103 H103       28.7114  -48.1301  -52.3989 H         1 UNK         0.0828 
    104 H104       30.4032  -47.8430  -52.7701 H         1 UNK         0.0828 
    105 H105       29.7268  -49.4587  -52.9462 H         1 UNK         0.0828 
    106 H106       31.0574  -48.8895  -54.9800 H         1 UNK         0.3005 
    107 H107       31.0762  -49.1655  -58.4771 H         1 UNK         0.1257 
    108 H108       33.4352  -48.1256  -58.2906 H         1 UNK         0.0775 
    109 H109       32.8179  -47.1180  -57.0126 H         1 UNK         0.0775 
    110 H110       33.6747  -44.9891  -58.7122 H         1 UNK         0.0840 
    111 H111       32.2820  -44.1738  -59.3769 H         1 UNK         0.0840 
    112 H112       33.1230  -49.7732  -56.6469 H         1 UNK         0.2987 
    113 H113       31.7898  -52.5254  -55.0062 H         1 UNK         0.0785 
    114 H114       33.6416  -52.7787  -57.4402 H         1 UNK         0.0798 
    115 H115       32.1380  -53.6600  -57.2099 H         1 UNK         0.0798 
    116 H116       33.4880  -53.9471  -56.1266 H         1 UNK         0.0798 
    117 H117       34.4930  -51.7906  -55.2949 H         1 UNK         0.3079 
    118 H118       35.4716  -50.8618  -53.3715 H         1 UNK         0.0794 
    119 H119       34.7471  -48.0902  -54.5213 H         1 UNK         0.0786 
    120 H120       35.6262  -49.3459  -55.3862 H         1 UNK         0.0786 
    121 H121       36.3530  -48.5790  -53.9867 H         1 UNK         0.0786 
    122 H122       33.5386  -49.1807  -52.0185 H         1 UNK         0.3032 
    123 H123       34.0445  -49.2743  -49.5128 H         1 UNK         0.1094 
    124 H124       36.7414  -47.8812  -49.0808 H         1 UNK         0.0794 
    125 H125       35.4869  -48.1072  -47.8615 H         1 UNK         0.0794 
    126 H126       36.3188  -49.4980  -48.5338 H         1 UNK         0.0794 
    127 H127       34.8973  -46.5111  -49.9384 H         1 UNK         0.3016 
@<TRIPOS>BOND
     1    1    2 1    
     2    1   67 1    
     3    1   68 1    
     4    1   69 1    
     5    2    3 2    
     6    2    4 am   BACKBONE|DICT|INTERRES
     7    4    5 1    
     8    4   70 1    
     9    5    6 1    
    10    5   65 1    
    11    5   71 1    
    12    6    7 1    
    13    6   72 1    
    14    6   73 1    
    15    7    8 1    
    16    8    9 1    
    17    8   74 1    
    18    8   75 1    
    19    9   10 ar   
    20    9   14 ar   
    21   10   11 ar   
    22   10   76 1    
    23   11   12 ar   
    24   11   48 1    
    25   12   13 ar   
    26   12   77 1    
    27   13   14 ar   
    28   13   15 1    
    29   14   78 1    
    30   15   16 1    
    31   15   79 1    
    32   15   80 1    
    33   16   17 1    
    34   17   18 1    
    35   17   81 1    
    36   17   82 1    
    37   18   19 1    
    38   18   22 1    
    39   18   83 1    
    40   19   20 am   BACKBONE|DICT|INTERRES
    41   19   21 2    
    42   20   84 1    
    43   20   85 1    
    44   22   23 am   BACKBONE|DICT|INTERRES
    45   22   86 1    
    46   23   24 2    
    47   23   25 1    
    48   25   26 1    
    49   25   27 1    
    50   25   87 1    
    51   26   88 1    
    52   26   89 1    
    53   26   90 1    
    54   27   28 am   BACKBONE|DICT|INTERRES
    55   27   91 1    
    56   28   29 2    
    57   28   30 1    
    58   30   31 1    
    59   30   32 1    
    60   30   92 1    
    61   31   93 1    
    62   31   94 1    
    63   31   95 1    
    64   32   33 am   BACKBONE|DICT|INTERRES
    65   32   96 1    
    66   33   34 2    
    67   33   35 1    
    68   35   36 1    
    69   35   37 1    
    70   35   97 1    
    71   36   98 1    
    72   36   99 1    
    73   36  100 1    
    74   37   38 am   BACKBONE|DICT|INTERRES
    75   37  101 1    
    76   38   39 2    
    77   38   40 1    
    78   40   41 1    
    79   40   42 1    
    80   40  102 1    
    81   41  103 1    
    82   41  104 1    
    83   41  105 1    
    84   42   43 am   BACKBONE|DICT|INTERRES
    85   42  106 1    
    86   43   44 2    
    87   43   45 1    
    88   45   46 1    
    89   45   49 1    
    90   45  107 1    
    91   46   47 1    
    92   46  108 1    
    93   46  109 1    
    94   47   48 1    
    95   48  110 1    
    96   48  111 1    
    97   49   50 am   BACKBONE|DICT|INTERRES
    98   49  112 1    
    99   50   51 2    
   100   50   52 1    
   101   52   53 1    
   102   52   54 1    
   103   52  113 1    
   104   53  114 1    
   105   53  115 1    
   106   53  116 1    
   107   54   55 am   BACKBONE|DICT|INTERRES
   108   54  117 1    
   109   55   56 2    
   110   55   57 1    
   111   57   58 1    
   112   57   59 1    
   113   57  118 1    
   114   58  119 1    
   115   58  120 1    
   116   58  121 1    
   117   59   60 am   BACKBONE|DICT|INTERRES
   118   59  122 1    
   119   60   61 2    
   120   60   62 1    
   121   62   63 1    
   122   62   64 1    
   123   62  123 1    
   124   63  124 1    
   125   63  125 1    
   126   63  126 1    
   127   64   65 am   BACKBONE|DICT|INTERRES
   128   64  127 1    
   129   65   66 2    
@<TRIPOS>SUBSTRUCTURE
     1 UNK         1 GROUP             0       ****    0 ROOT    
