@<TRIPOS>MOLECULE
3R134
127   129    1
SMALL
USER_CHARGES


@<TRIPOS>ATOM
      1 CA         33.6498  -42.8012  -51.2409 C.3       0 UNK        -0.1968 
      2 C          34.6948  -43.6489  -51.9516 C.2       0 UNK         0.4852 
      3 O          35.8356  -43.7262  -51.4942 O.2       0 UNK        -0.5359 
      4 N          34.3103  -44.2798  -53.0691 N.am      1 UNK        -0.4300 
      5 CA         35.1682  -45.1130  -53.9242 C.3       1 UNK         0.0863 
      6 C6         34.5038  -45.4666  -55.2823 C.3       11 UNK        -0.0953 
      7 S7         33.6261  -44.0756  -56.0813 S.3       11 UNK        -0.2369 
      8 C8         31.9420  -44.7557  -56.2517 C.3       11 UNK         0.0226 
      9 C9         31.0668  -44.5202  -55.0233 C.ar      11 UNK        -0.0699 
     10 C10        31.3452  -45.1556  -53.8091 C.ar      11 UNK        -0.0804 
     11 C11        30.5294  -44.9633  -52.6906 C.ar      11 UNK        -0.0871 
     12 C12        29.3961  -44.1546  -52.8055 C.ar      11 UNK        -0.1008 
     13 C13        29.0889  -43.5312  -54.0186 C.ar      11 UNK        -0.0735 
     14 C14        29.9355  -43.7037  -55.1176 C.ar      11 UNK        -0.0945 
     15 C15        27.8381  -42.6761  -54.1371 C.3       11 UNK         0.0169 
     16 S16        26.4683  -43.6175  -54.8793 S.3       11 UNK        -0.2669 
     17 C17        26.4438  -42.9510  -56.5782 C.3       11 UNK        -0.0850 
     18 CA         25.8920  -43.9651  -57.6239 C.3       10 UNK         0.0855 
     19 C          25.5477  -43.2864  -58.9871 C.2       10 UNK         0.5543 
     20 N          25.7588  -43.9258  -60.1319 N.am      10 UNK        -0.7343 
     21 O          25.0429  -42.1663  -59.0111 O.2       10 UNK        -0.5027 
     22 N          26.6980  -45.1939  -57.7372 N.am      10 UNK        -0.4495 
     23 C          27.9699  -45.2691  -58.1557 C.2       10 UNK         0.4903 
     24 O          28.6748  -44.2921  -58.4086 O.2       10 UNK        -0.4860 
     25 CA         28.5539  -46.6767  -58.3707 C.3       9 UNK         0.0227 
     26 CB         29.1447  -47.2205  -57.0644 C.3       9 UNK        -0.1964 
     27 N          27.6013  -47.6618  -58.8830 N.am      9 UNK        -0.4231 
     28 C          26.8451  -47.5805  -59.9832 C.2       9 UNK         0.5014 
     29 O          26.8547  -46.6195  -60.7530 O.2       9 UNK        -0.5270 
     30 CA         25.8890  -48.7589  -60.2577 C.3       8 UNK         0.0284 
     31 CB         26.6137  -49.9035  -60.9928 C.3       8 UNK        -0.1977 
     32 N          25.1701  -49.2445  -59.0665 N.am      8 UNK        -0.4342 
     33 C          25.6647  -49.8275  -57.9647 C.2       8 UNK         0.5039 
     34 O          26.8539  -50.1122  -57.8039 O.2       8 UNK        -0.5547 
     35 CA         24.6776  -50.0598  -56.8118 C.3       7 UNK         0.0281 
     36 CB         24.6432  -51.5418  -56.4036 C.3       7 UNK        -0.1963 
     37 N          25.0289  -49.2454  -55.6462 N.am      7 UNK        -0.4444 
     38 C          25.0653  -47.9069  -55.6061 C.2       7 UNK         0.5104 
     39 O          24.8269  -47.1822  -56.5735 O.2       7 UNK        -0.5100 
     40 CA         25.4239  -47.2604  -54.2566 C.3       6 UNK         0.0396 
     41 CB         24.5720  -47.8073  -53.0915 C.3       6 UNK        -0.1801 
     42 N          26.8586  -47.3082  -53.9509 N.am      6 UNK        -0.4747 
     43 C          27.6175  -48.3928  -53.7341 C.2       6 UNK         0.5012 
     44 O          27.1909  -49.5512  -53.7385 O.2       6 UNK        -0.5003 
     45 CA         29.1002  -48.1352  -53.4275 C.3       5 UNK         0.0782 
     46 C46        29.3002  -47.8932  -51.9079 C.3       11 UNK        -0.0868 
     47 S47        31.0098  -47.4301  -51.4696 S.3       11 UNK        -0.2515 
     48 C48        30.8750  -45.6175  -51.3570 C.3       11 UNK         0.0199 
     49 N          29.8710  -49.2760  -53.9237 N.am      5 UNK        -0.4607 
     50 C          31.0439  -49.1878  -54.5556 C.2       4 UNK         0.5031 
     51 O          31.6144  -48.1269  -54.8187 O.2       4 UNK        -0.5119 
     52 CA         31.7120  -50.4991  -54.9701 C.3       4 UNK         0.0263 
     53 CB         31.3911  -50.8500  -56.4338 C.3       4 UNK        -0.1967 
     54 N          33.1430  -50.2935  -54.7923 N.am      4 UNK        -0.4237 
     55 C          34.0697  -51.2343  -54.5935 C.2       3 UNK         0.4908 
     56 O          33.8501  -52.4445  -54.6576 O.2       3 UNK        -0.5102 
     57 CA         35.4813  -50.7336  -54.2354 C.3       3 UNK         0.0241 
     58 CB         36.2963  -50.4574  -55.5093 C.3       3 UNK        -0.1971 
     59 N          35.4773  -49.5316  -53.3918 N.am      3 UNK        -0.4139 
     60 C          35.0005  -49.4615  -52.1414 C.2       2 UNK         0.5016 
     61 O          34.5225  -50.4262  -51.5437 O.2       2 UNK        -0.5319 
     62 CA         35.0532  -48.0997  -51.4205 C.3       2 UNK         0.0286 
     63 CB         36.3387  -47.9729  -50.5799 C.3       2 UNK        -0.1963 
     64 N          34.8545  -46.9129  -52.2693 N.am      2 UNK        -0.4790 
     65 C          35.6420  -46.4122  -53.2352 C.2       1 UNK         0.5024 
     66 O          36.6816  -46.9505  -53.6168 O.2       1 UNK        -0.4888 
     67 H67        32.7001  -42.7885  -51.7760 H         1 UNK         0.0892 
     68 H68        33.4705  -43.1884  -50.2383 H         1 UNK         0.0892 
     69 H69        33.9996  -41.7731  -51.1512 H         1 UNK         0.0892 
     70 H70        33.3778  -44.1225  -53.4264 H         1 UNK         0.3107 
     71 H71        36.0628  -44.5237  -54.1367 H         1 UNK         0.0773 
     72 H72        33.8182  -46.3086  -55.1749 H         1 UNK         0.0680 
     73 H73        35.2679  -45.8119  -55.9812 H         1 UNK         0.0680 
     74 H74        31.9950  -45.8230  -56.4692 H         1 UNK         0.0650 
     75 H75        31.4835  -44.2986  -57.1301 H         1 UNK         0.0650 
     76 H76        32.1851  -45.8280  -53.7330 H         1 UNK         0.1397 
     77 H77        28.7483  -44.0104  -51.9513 H         1 UNK         0.1363 
     78 H78        29.6956  -43.2231  -56.0561 H         1 UNK         0.1355 
     79 H79        27.5256  -42.3302  -53.1506 H         1 UNK         0.0707 
     80 H80        28.0485  -41.7757  -54.7160 H         1 UNK         0.0707 
     81 H81        25.8247  -42.0526  -56.5494 H         1 UNK         0.1034 
     82 H82        27.4401  -42.6133  -56.8640 H         1 UNK         0.1034 
     83 H83        24.9251  -44.3059  -57.2521 H         1 UNK         0.0482 
     84 H84        26.1754  -44.8505  -60.1531 H         1 UNK         0.3460 
     85 H85        25.5159  -43.4706  -60.9971 H         1 UNK         0.3460 
     86 H86        26.1920  -46.0505  -57.5382 H         1 UNK         0.2989 
     87 H87        29.3586  -46.5869  -59.1028 H         1 UNK         0.0559 
     88 H88        29.7609  -46.4779  -56.5626 H         1 UNK         0.0848 
     89 H89        29.7698  -48.0951  -57.2442 H         1 UNK         0.0848 
     90 H90        28.3579  -47.5091  -56.3705 H         1 UNK         0.0848 
     91 H91        27.5010  -48.5232  -58.3461 H         1 UNK         0.3144 
     92 H92        25.1175  -48.3794  -60.9298 H         1 UNK         0.0727 
     93 H93        25.9249  -50.7085  -61.2489 H         1 UNK         0.0790 
     94 H94        27.4202  -50.3299  -60.3957 H         1 UNK         0.0790 
     95 H95        27.0562  -49.5469  -61.9239 H         1 UNK         0.0790 
     96 H96        24.1862  -49.0105  -59.0545 H         1 UNK         0.3215 
     97 H97        23.6747  -49.7702  -57.1324 H         1 UNK         0.0863 
     98 H98        23.9039  -51.7223  -55.6231 H         1 UNK         0.0808 
     99 H99        25.6120  -51.8807  -56.0334 H         1 UNK         0.0808 
    100 H100       24.3794  -52.1741  -57.2525 H         1 UNK         0.0808 
    101 H101       25.3867  -49.7365  -54.8354 H         1 UNK         0.3118 
    102 H102       25.1751  -46.2033  -54.3521 H         1 UNK         0.0546 
    103 H103       24.7797  -48.8543  -52.8713 H         1 UNK         0.0828 
    104 H104       23.5082  -47.7302  -53.3198 H         1 UNK         0.0828 
    105 H105       24.7464  -47.2377  -52.1788 H         1 UNK         0.0828 
    106 H106       27.3073  -46.4014  -53.9347 H         1 UNK         0.3005 
    107 H107       29.3954  -47.2371  -53.9741 H         1 UNK         0.1257 
    108 H108       29.0434  -48.7923  -51.3444 H         1 UNK         0.0775 
    109 H109       28.6264  -47.1130  -51.5480 H         1 UNK         0.0775 
    110 H110       30.1388  -45.3634  -50.5926 H         1 UNK         0.0840 
    111 H111       31.8262  -45.2194  -51.0037 H         1 UNK         0.0840 
    112 H112       29.4202  -50.1734  -53.8035 H         1 UNK         0.2987 
    113 H113       31.3765  -51.3018  -54.3097 H         1 UNK         0.0785 
    114 H114       31.8708  -51.7816  -56.7337 H         1 UNK         0.0798 
    115 H115       31.7240  -50.0668  -57.1163 H         1 UNK         0.0798 
    116 H116       30.3172  -50.9754  -56.5787 H         1 UNK         0.0798 
    117 H117       33.3978  -49.3174  -54.7023 H         1 UNK         0.3079 
    118 H118       35.9788  -51.5285  -53.6758 H         1 UNK         0.0794 
    119 H119       36.3342  -51.3412  -56.1478 H         1 UNK         0.0786 
    120 H120       37.3252  -50.1869  -55.2708 H         1 UNK         0.0786 
    121 H121       35.8644  -49.6470  -56.0980 H         1 UNK         0.0786 
    122 H122       35.9141  -48.6941  -53.7649 H         1 UNK         0.3032 
    123 H123       34.2112  -48.0996  -50.7254 H         1 UNK         0.1094 
    124 H124       36.3456  -47.0473  -50.0042 H         1 UNK         0.0794 
    125 H125       36.4217  -48.7969  -49.8698 H         1 UNK         0.0794 
    126 H126       37.2359  -47.9895  -51.1992 H         1 UNK         0.0794 
    127 H127       34.0070  -46.3998  -52.0736 H         1 UNK         0.3016 
@<TRIPOS>BOND
     1    1    2 1    
     2    1   67 1    
     3    1   68 1    
     4    1   69 1    
     5    2    3 2    
     6    2    4 am   BACKBONE|DICT|INTERRES
     7    4    5 1    
     8    4   70 1    
     9    5    6 1    
    10    5   65 1    
    11    5   71 1    
    12    6    7 1    
    13    6   72 1    
    14    6   73 1    
    15    7    8 1    
    16    8    9 1    
    17    8   74 1    
    18    8   75 1    
    19    9   10 ar   
    20    9   14 ar   
    21   10   11 ar   
    22   10   76 1    
    23   11   12 ar   
    24   11   48 1    
    25   12   13 ar   
    26   12   77 1    
    27   13   14 ar   
    28   13   15 1    
    29   14   78 1    
    30   15   16 1    
    31   15   79 1    
    32   15   80 1    
    33   16   17 1    
    34   17   18 1    
    35   17   81 1    
    36   17   82 1    
    37   18   19 1    
    38   18   22 1    
    39   18   83 1    
    40   19   20 am   BACKBONE|DICT|INTERRES
    41   19   21 2    
    42   20   84 1    
    43   20   85 1    
    44   22   23 am   BACKBONE|DICT|INTERRES
    45   22   86 1    
    46   23   24 2    
    47   23   25 1    
    48   25   26 1    
    49   25   27 1    
    50   25   87 1    
    51   26   88 1    
    52   26   89 1    
    53   26   90 1    
    54   27   28 am   BACKBONE|DICT|INTERRES
    55   27   91 1    
    56   28   29 2    
    57   28   30 1    
    58   30   31 1    
    59   30   32 1    
    60   30   92 1    
    61   31   93 1    
    62   31   94 1    
    63   31   95 1    
    64   32   33 am   BACKBONE|DICT|INTERRES
    65   32   96 1    
    66   33   34 2    
    67   33   35 1    
    68   35   36 1    
    69   35   37 1    
    70   35   97 1    
    71   36   98 1    
    72   36   99 1    
    73   36  100 1    
    74   37   38 am   BACKBONE|DICT|INTERRES
    75   37  101 1    
    76   38   39 2    
    77   38   40 1    
    78   40   41 1    
    79   40   42 1    
    80   40  102 1    
    81   41  103 1    
    82   41  104 1    
    83   41  105 1    
    84   42   43 am   BACKBONE|DICT|INTERRES
    85   42  106 1    
    86   43   44 2    
    87   43   45 1    
    88   45   46 1    
    89   45   49 1    
    90   45  107 1    
    91   46   47 1    
    92   46  108 1    
    93   46  109 1    
    94   47   48 1    
    95   48  110 1    
    96   48  111 1    
    97   49   50 am   BACKBONE|DICT|INTERRES
    98   49  112 1    
    99   50   51 2    
   100   50   52 1    
   101   52   53 1    
   102   52   54 1    
   103   52  113 1    
   104   53  114 1    
   105   53  115 1    
   106   53  116 1    
   107   54   55 am   BACKBONE|DICT|INTERRES
   108   54  117 1    
   109   55   56 2    
   110   55   57 1    
   111   57   58 1    
   112   57   59 1    
   113   57  118 1    
   114   58  119 1    
   115   58  120 1    
   116   58  121 1    
   117   59   60 am   BACKBONE|DICT|INTERRES
   118   59  122 1    
   119   60   61 2    
   120   60   62 1    
   121   62   63 1    
   122   62   64 1    
   123   62  123 1    
   124   63  124 1    
   125   63  125 1    
   126   63  126 1    
   127   64   65 am   BACKBONE|DICT|INTERRES
   128   64  127 1    
   129   65   66 2    
@<TRIPOS>SUBSTRUCTURE
     1 UNK         1 GROUP             0       ****    0 ROOT    
