@<TRIPOS>MOLECULE
3R134
127   129    1
SMALL
USER_CHARGES


@<TRIPOS>ATOM
      1 CA         28.3650  -47.9623  -51.0088 C.3       0 UNK        -0.1968 
      2 C          29.5226  -47.1802  -50.4049 C.2       0 UNK         0.4852 
      3 O          30.1498  -47.6510  -49.4557 O.2       0 UNK        -0.5359 
      4 N          29.8150  -45.9949  -50.9581 N.am      1 UNK        -0.4300 
      5 CA         30.9268  -45.1094  -50.5790 C.3       1 UNK         0.0863 
      6 C6         30.8092  -43.7157  -51.2562 C.3       11 UNK        -0.0953 
      7 S7         30.3895  -43.7829  -53.0351 S.3       11 UNK        -0.2369 
      8 C8         31.9661  -43.3225  -53.8228 C.3       11 UNK         0.0226 
      9 C9         32.0508  -43.7632  -55.2828 C.ar      11 UNK        -0.0699 
     10 C10        33.2154  -44.3787  -55.7497 C.ar      11 UNK        -0.0804 
     11 C11        33.3250  -44.7984  -57.0784 C.ar      11 UNK        -0.0871 
     12 C12        32.2561  -44.5871  -57.9552 C.ar      11 UNK        -0.1008 
     13 C13        31.0944  -43.9451  -57.5124 C.ar      11 UNK        -0.0735 
     14 C14        30.9972  -43.5383  -56.1771 C.ar      11 UNK        -0.0945 
     15 C15        29.9501  -43.6670  -58.4762 C.3       11 UNK         0.0169 
     16 S16        28.7476  -45.0303  -58.4795 S.3       11 UNK        -0.2669 
     17 C17        27.1670  -44.1322  -58.6216 C.3       11 UNK        -0.0850 
     18 CA         26.6331  -43.6330  -57.2532 C.3       10 UNK         0.0855 
     19 C          25.3335  -42.8065  -57.4455 C.2       10 UNK         0.5543 
     20 N          25.4451  -41.4885  -57.5409 N.am      10 UNK        -0.7343 
     21 O          24.2365  -43.3491  -57.5593 O.2       10 UNK        -0.5027 
     22 N          26.4601  -44.7296  -56.2880 N.am      10 UNK        -0.4495 
     23 C          26.3092  -44.5511  -54.9671 C.2       10 UNK         0.4903 
     24 O          26.3229  -43.4425  -54.4297 O.2       10 UNK        -0.4860 
     25 CA         26.1622  -45.8098  -54.0853 C.3       9 UNK         0.0227 
     26 CB         25.4410  -45.5347  -52.7481 C.3       9 UNK        -0.1964 
     27 N          25.5798  -46.9600  -54.7830 N.am      9 UNK        -0.4231 
     28 C          24.3405  -47.0668  -55.2901 C.2       9 UNK         0.5014 
     29 O          23.4637  -46.2136  -55.1441 O.2       9 UNK        -0.5270 
     30 CA         24.0301  -48.3466  -56.1011 C.3       8 UNK         0.0284 
     31 CB         22.9241  -48.1242  -57.1554 C.3       8 UNK        -0.1977 
     32 N          25.2171  -48.9583  -56.7190 N.am      8 UNK        -0.4342 
     33 C          26.0633  -48.3729  -57.5790 C.2       8 UNK         0.5039 
     34 O          25.9262  -47.2284  -58.0135 O.2       8 UNK        -0.5547 
     35 CA         27.3211  -49.1748  -57.9511 C.3       7 UNK         0.0281 
     36 CB         27.4355  -49.3484  -59.4743 C.3       7 UNK        -0.1963 
     37 N          28.5296  -48.5173  -57.4506 N.am      7 UNK        -0.4444 
     38 C          28.7931  -48.2118  -56.1748 C.2       7 UNK         0.5104 
     39 O          28.0550  -48.5191  -55.2347 O.2       7 UNK        -0.5100 
     40 CA         30.0947  -47.4298  -55.9124 C.3       6 UNK         0.0396 
     41 CB         30.2290  -47.0063  -54.4444 C.3       6 UNK        -0.1801 
     42 N          31.3023  -48.1590  -56.3032 N.am      6 UNK        -0.4747 
     43 C          31.7254  -48.3630  -57.5587 C.2       6 UNK         0.5012 
     44 O          31.0935  -47.9984  -58.5521 O.2       6 UNK        -0.5003 
     45 CA         33.0540  -49.1120  -57.7691 C.3       5 UNK         0.0782 
     46 C46        34.1934  -48.1647  -58.2261 C.3       11 UNK        -0.0868 
     47 S47        34.8811  -47.1038  -56.9046 S.3       11 UNK        -0.2515 
     48 C48        34.6256  -45.4238  -57.5643 C.3       11 UNK         0.0199 
     49 N          33.4357  -49.9449  -56.6207 N.am      5 UNK        -0.4607 
     50 C          33.8906  -51.2019  -56.7163 C.2       4 UNK         0.5031 
     51 O          34.0101  -51.8025  -57.7850 O.2       4 UNK        -0.5119 
     52 CA         34.2971  -51.9272  -55.4167 C.3       4 UNK         0.0263 
     53 CB         35.8171  -51.8290  -55.2076 C.3       4 UNK        -0.1967 
     54 N          33.6188  -51.4261  -54.2201 N.am      4 UNK        -0.4237 
     55 C          32.3083  -51.5485  -53.9703 C.2       3 UNK         0.4908 
     56 O          31.5441  -52.2154  -54.6688 O.2       3 UNK        -0.5102 
     57 CA         31.7343  -50.7899  -52.7538 C.3       3 UNK         0.0241 
     58 CB         31.4074  -51.7718  -51.6164 C.3       3 UNK        -0.1971 
     59 N          32.5418  -49.6850  -52.2084 N.am      3 UNK        -0.4139 
     60 C          33.0377  -48.6480  -52.8967 C.2       2 UNK         0.5016 
     61 O          32.9925  -48.5599  -54.1235 O.2       2 UNK        -0.5319 
     62 CA         33.5820  -47.4755  -52.0788 C.3       2 UNK         0.0286 
     63 CB         34.6684  -46.6865  -52.8335 C.3       2 UNK        -0.1963 
     64 N          32.4315  -46.6259  -51.7942 N.am      2 UNK        -0.4790 
     65 C          32.3199  -45.7463  -50.7934 C.2       1 UNK         0.5024 
     66 O          33.2447  -45.4557  -50.0335 O.2       1 UNK        -0.4888 
     67 H67        27.5690  -48.0820  -50.2744 H         1 UNK         0.0892 
     68 H68        27.9475  -47.4671  -51.8848 H         1 UNK         0.0892 
     69 H69        28.7009  -48.9536  -51.3126 H         1 UNK         0.0892 
     70 H70        29.2520  -45.6475  -51.7213 H         1 UNK         0.3107 
     71 H71        30.8405  -44.9505  -49.5018 H         1 UNK         0.0773 
     72 H72        30.0103  -43.1555  -50.7682 H         1 UNK         0.0680 
     73 H73        31.7106  -43.1189  -51.1026 H         1 UNK         0.0680 
     74 H74        32.7826  -43.7673  -53.2515 H         1 UNK         0.0650 
     75 H75        32.0937  -42.2411  -53.7645 H         1 UNK         0.0650 
     76 H76        34.0511  -44.5240  -55.0809 H         1 UNK         0.1397 
     77 H77        32.3321  -44.9054  -58.9860 H         1 UNK         0.1363 
     78 H78        30.0973  -43.0471  -55.8332 H         1 UNK         0.1355 
     79 H79        30.3299  -43.5227  -59.4887 H         1 UNK         0.0707 
     80 H80        29.4613  -42.7323  -58.1981 H         1 UNK         0.0707 
     81 H81        27.2974  -43.2998  -59.3160 H         1 UNK         0.1034 
     82 H82        26.4407  -44.8002  -59.0887 H         1 UNK         0.1034 
     83 H83        27.3898  -42.9654  -56.8357 H         1 UNK         0.0482 
     84 H84        24.6140  -40.9360  -57.6843 H         1 UNK         0.3460 
     85 H85        26.3400  -41.0320  -57.4569 H         1 UNK         0.3460 
     86 H86        26.3796  -45.6580  -56.6891 H         1 UNK         0.2989 
     87 H87        27.1787  -46.1100  -53.8380 H         1 UNK         0.0559 
     88 H88        24.4343  -45.1459  -52.9031 H         1 UNK         0.0848 
     89 H89        25.9836  -44.7971  -52.1555 H         1 UNK         0.0848 
     90 H90        25.3632  -46.4385  -52.1441 H         1 UNK         0.0848 
     91 H91        26.2365  -47.7122  -54.9748 H         1 UNK         0.3144 
     92 H92        23.6549  -49.0730  -55.3788 H         1 UNK         0.0727 
     93 H93        23.2021  -47.3525  -57.8743 H         1 UNK         0.0790 
     94 H94        21.9913  -47.8093  -56.6861 H         1 UNK         0.0790 
     95 H95        22.7129  -49.0388  -57.7093 H         1 UNK         0.0790 
     96 H96        25.4426  -49.8886  -56.3921 H         1 UNK         0.3215 
     97 H97        27.2675  -50.1652  -57.4947 H         1 UNK         0.0863 
     98 H98        28.2993  -49.9574  -59.7413 H         1 UNK         0.0808 
     99 H99        27.5333  -48.3873  -59.9816 H         1 UNK         0.0808 
    100 H100       26.5511  -49.8426  -59.8784 H         1 UNK         0.0808 
    101 H101       29.2156  -48.2189  -58.1386 H         1 UNK         0.3118 
    102 H102       30.0560  -46.5156  -56.5022 H         1 UNK         0.0546 
    103 H103       29.4014  -46.3629  -54.1535 H         1 UNK         0.0828 
    104 H104       31.1465  -46.4384  -54.2943 H         1 UNK         0.0828 
    105 H105       30.2349  -47.8658  -53.7741 H         1 UNK         0.0828 
    106 H106       31.9097  -48.4352  -55.5351 H         1 UNK         0.3005 
    107 H107       32.8421  -49.7730  -58.6128 H         1 UNK         0.1257 
    108 H108       33.8635  -47.5528  -59.0675 H         1 UNK         0.0775 
    109 H109       35.0172  -48.7651  -58.6147 H         1 UNK         0.0775 
    110 H110       35.4563  -44.7985  -57.2340 H         1 UNK         0.0840 
    111 H111       34.6781  -45.4295  -58.6539 H         1 UNK         0.0840 
    112 H112       33.3896  -49.5013  -55.7071 H         1 UNK         0.2987 
    113 H113       34.0344  -52.9807  -55.5348 H         1 UNK         0.0785 
    114 H114       36.3558  -52.2264  -56.0691 H         1 UNK         0.0798 
    115 H115       36.1369  -52.4008  -54.3362 H         1 UNK         0.0798 
    116 H116       36.1392  -50.7957  -55.0709 H         1 UNK         0.0798 
    117 H117       34.1638  -50.8468  -53.5990 H         1 UNK         0.3079 
    118 H118       30.7954  -50.3469  -53.0925 H         1 UNK         0.0794 
    119 H119       32.3110  -52.2152  -51.1963 H         1 UNK         0.0786 
    120 H120       30.7776  -52.5894  -51.9707 H         1 UNK         0.0786 
    121 H121       30.8660  -51.2791  -50.8083 H         1 UNK         0.0786 
    122 H122       32.6161  -49.6584  -51.2010 H         1 UNK         0.3032 
    123 H123       34.0017  -47.8547  -51.1442 H         1 UNK         0.1094 
    124 H124       34.2999  -46.3144  -53.7878 H         1 UNK         0.0794 
    125 H125       35.0239  -45.8347  -52.2540 H         1 UNK         0.0794 
    126 H126       35.5302  -47.3199  -53.0463 H         1 UNK         0.0794 
    127 H127       31.6165  -46.7989  -52.3647 H         1 UNK         0.3016 
@<TRIPOS>BOND
     1    1    2 1    
     2    1   67 1    
     3    1   68 1    
     4    1   69 1    
     5    2    3 2    
     6    2    4 am   BACKBONE|DICT|INTERRES
     7    4    5 1    
     8    4   70 1    
     9    5    6 1    
    10    5   65 1    
    11    5   71 1    
    12    6    7 1    
    13    6   72 1    
    14    6   73 1    
    15    7    8 1    
    16    8    9 1    
    17    8   74 1    
    18    8   75 1    
    19    9   10 ar   
    20    9   14 ar   
    21   10   11 ar   
    22   10   76 1    
    23   11   12 ar   
    24   11   48 1    
    25   12   13 ar   
    26   12   77 1    
    27   13   14 ar   
    28   13   15 1    
    29   14   78 1    
    30   15   16 1    
    31   15   79 1    
    32   15   80 1    
    33   16   17 1    
    34   17   18 1    
    35   17   81 1    
    36   17   82 1    
    37   18   19 1    
    38   18   22 1    
    39   18   83 1    
    40   19   20 am   BACKBONE|DICT|INTERRES
    41   19   21 2    
    42   20   84 1    
    43   20   85 1    
    44   22   23 am   BACKBONE|DICT|INTERRES
    45   22   86 1    
    46   23   24 2    
    47   23   25 1    
    48   25   26 1    
    49   25   27 1    
    50   25   87 1    
    51   26   88 1    
    52   26   89 1    
    53   26   90 1    
    54   27   28 am   BACKBONE|DICT|INTERRES
    55   27   91 1    
    56   28   29 2    
    57   28   30 1    
    58   30   31 1    
    59   30   32 1    
    60   30   92 1    
    61   31   93 1    
    62   31   94 1    
    63   31   95 1    
    64   32   33 am   BACKBONE|DICT|INTERRES
    65   32   96 1    
    66   33   34 2    
    67   33   35 1    
    68   35   36 1    
    69   35   37 1    
    70   35   97 1    
    71   36   98 1    
    72   36   99 1    
    73   36  100 1    
    74   37   38 am   BACKBONE|DICT|INTERRES
    75   37  101 1    
    76   38   39 2    
    77   38   40 1    
    78   40   41 1    
    79   40   42 1    
    80   40  102 1    
    81   41  103 1    
    82   41  104 1    
    83   41  105 1    
    84   42   43 am   BACKBONE|DICT|INTERRES
    85   42  106 1    
    86   43   44 2    
    87   43   45 1    
    88   45   46 1    
    89   45   49 1    
    90   45  107 1    
    91   46   47 1    
    92   46  108 1    
    93   46  109 1    
    94   47   48 1    
    95   48  110 1    
    96   48  111 1    
    97   49   50 am   BACKBONE|DICT|INTERRES
    98   49  112 1    
    99   50   51 2    
   100   50   52 1    
   101   52   53 1    
   102   52   54 1    
   103   52  113 1    
   104   53  114 1    
   105   53  115 1    
   106   53  116 1    
   107   54   55 am   BACKBONE|DICT|INTERRES
   108   54  117 1    
   109   55   56 2    
   110   55   57 1    
   111   57   58 1    
   112   57   59 1    
   113   57  118 1    
   114   58  119 1    
   115   58  120 1    
   116   58  121 1    
   117   59   60 am   BACKBONE|DICT|INTERRES
   118   59  122 1    
   119   60   61 2    
   120   60   62 1    
   121   62   63 1    
   122   62   64 1    
   123   62  123 1    
   124   63  124 1    
   125   63  125 1    
   126   63  126 1    
   127   64   65 am   BACKBONE|DICT|INTERRES
   128   64  127 1    
   129   65   66 2    
@<TRIPOS>SUBSTRUCTURE
     1 UNK         1 GROUP             0       ****    0 ROOT    
