@<TRIPOS>MOLECULE
3R134
127   129    1
SMALL
USER_CHARGES


@<TRIPOS>ATOM
      1 CA         37.5528  -48.1601  -56.6989 C.3       0 UNK        -0.1968 
      2 C          36.0779  -47.9972  -56.3646 C.2       0 UNK         0.4852 
      3 O          35.4028  -48.9869  -56.0838 O.2       0 UNK        -0.5359 
      4 N          35.5759  -46.7546  -56.3741 N.am      1 UNK        -0.4300 
      5 CA         34.1793  -46.3854  -56.0948 C.3       1 UNK         0.0863 
      6 C6         33.9396  -44.8729  -56.3335 C.3       11 UNK        -0.0953 
      7 S7         34.9695  -43.8043  -55.2608 S.3       11 UNK        -0.2369 
      8 C8         33.9873  -42.2745  -55.1569 C.3       11 UNK         0.0226 
      9 C9         32.5721  -42.4840  -54.6289 C.ar      11 UNK        -0.0699 
     10 C10        32.3408  -43.1252  -53.4049 C.ar      11 UNK        -0.0804 
     11 C11        31.0364  -43.2847  -52.9219 C.ar      11 UNK        -0.0871 
     12 C12        29.9639  -42.7894  -53.6678 C.ar      11 UNK        -0.1008 
     13 C13        30.1830  -42.1524  -54.8908 C.ar      11 UNK        -0.0735 
     14 C14        31.4867  -42.0034  -55.3674 C.ar      11 UNK        -0.0945 
     15 C15        29.0084  -41.6107  -55.6845 C.3       11 UNK         0.0169 
     16 S16        28.4705  -42.8013  -56.9503 S.3       11 UNK        -0.2669 
     17 C17        26.6730  -42.4916  -56.9600 C.3       11 UNK        -0.0850 
     18 CA         25.8970  -43.6415  -56.2518 C.3       10 UNK         0.0855 
     19 C          24.4465  -43.2380  -55.8400 C.2       10 UNK         0.5543 
     20 N          23.4892  -44.1575  -55.8101 N.am      10 UNK        -0.7343 
     21 O          24.1870  -42.0842  -55.5063 O.2       10 UNK        -0.5027 
     22 N          25.9970  -44.9261  -56.9719 N.am      10 UNK        -0.4495 
     23 C          25.4966  -45.1777  -58.1913 C.2       10 UNK         0.4903 
     24 O          24.9212  -44.3358  -58.8834 O.2       10 UNK        -0.4860 
     25 CA         25.6124  -46.6227  -58.7057 C.3       9 UNK         0.0227 
     26 CB         25.3743  -46.7524  -60.2262 C.3       9 UNK        -0.1964 
     27 N          26.8500  -47.2932  -58.3006 N.am      9 UNK        -0.4231 
     28 C          28.1069  -47.0373  -58.6983 C.2       9 UNK         0.5014 
     29 O          28.4112  -46.1264  -59.4691 O.2       9 UNK        -0.5270 
     30 CA         29.2236  -47.9661  -58.1666 C.3       8 UNK         0.0284 
     31 CB         30.2348  -47.1763  -57.3172 C.3       8 UNK        -0.1977 
     32 N          28.7217  -49.1075  -57.3907 N.am      8 UNK        -0.4342 
     33 C          28.0519  -50.1532  -57.8990 C.2       8 UNK         0.5039 
     34 O          27.9051  -50.3526  -59.1048 O.2       8 UNK        -0.5547 
     35 CA         27.3642  -51.0891  -56.8915 C.3       7 UNK         0.0281 
     36 CB         28.2831  -52.2638  -56.5199 C.3       7 UNK        -0.1963 
     37 N          26.9428  -50.3701  -55.6823 N.am      7 UNK        -0.4444 
     38 C          25.8781  -49.5551  -55.6209 C.2       7 UNK         0.5104 
     39 O          25.1139  -49.3670  -56.5662 O.2       7 UNK        -0.5100 
     40 CA         25.6434  -48.7854  -54.3074 C.3       6 UNK         0.0396 
     41 CB         24.8243  -49.6366  -53.3250 C.3       6 UNK        -0.1801 
     42 N          26.8882  -48.3592  -53.6647 N.am      6 UNK        -0.4747 
     43 C          27.7156  -47.4168  -54.1434 C.2       6 UNK         0.5012 
     44 O          27.4532  -46.7266  -55.1294 O.2       6 UNK        -0.5003 
     45 CA         29.0827  -47.2577  -53.4341 C.3       5 UNK         0.0782 
     46 C46        29.0624  -46.0655  -52.4470 C.3       11 UNK        -0.0868 
     47 S47        30.7049  -45.7683  -51.7000 S.3       11 UNK        -0.2515 
     48 C48        30.7835  -43.9531  -51.5773 C.3       11 UNK         0.0199 
     49 N          29.5412  -48.4948  -52.7817 N.am      5 UNK        -0.4607 
     50 C          29.7744  -49.6563  -53.4040 C.2       4 UNK         0.5031 
     51 O          29.5928  -49.8253  -54.6098 O.2       4 UNK        -0.5119 
     52 CA         30.2464  -50.8176  -52.5152 C.3       4 UNK         0.0263 
     53 CB         29.5674  -52.1559  -52.8742 C.3       4 UNK        -0.1967 
     54 N          31.7072  -50.9160  -52.5167 N.am      4 UNK        -0.4237 
     55 C          32.5279  -51.2653  -53.5181 C.2       3 UNK         0.4908 
     56 O          32.1630  -51.7002  -54.6112 O.2       3 UNK        -0.5102 
     57 CA         34.0280  -51.0585  -53.2341 C.3       3 UNK         0.0241 
     58 CB         34.9328  -51.7660  -54.2600 C.3       3 UNK        -0.1971 
     59 N          34.3499  -49.6288  -53.2031 N.am      3 UNK        -0.4139 
     60 C          34.0605  -48.8046  -52.1831 C.2       2 UNK         0.5016 
     61 O          33.5573  -49.1945  -51.1272 O.2       2 UNK        -0.5319 
     62 CA         34.3619  -47.3038  -52.3461 C.3       2 UNK         0.0286 
     63 CB         35.5680  -46.8972  -51.4844 C.3       2 UNK        -0.1963 
     64 N          34.6064  -46.8880  -53.7267 N.am      2 UNK        -0.4790 
     65 C          33.6824  -46.8230  -54.6971 C.2       1 UNK         0.5024 
     66 O          32.4973  -47.1096  -54.5349 O.2       1 UNK        -0.4888 
     67 H67        38.0772  -48.6239  -55.8639 H         1 UNK         0.0892 
     68 H68        37.6695  -48.8007  -57.5725 H         1 UNK         0.0892 
     69 H69        38.0314  -47.2046  -56.9122 H         1 UNK         0.0892 
     70 H70        36.1852  -45.9786  -56.5928 H         1 UNK         0.3107 
     71 H71        33.5675  -46.9308  -56.8166 H         1 UNK         0.0773 
     72 H72        34.1584  -44.6216  -57.3724 H         1 UNK         0.0680 
     73 H73        32.8827  -44.6408  -56.1928 H         1 UNK         0.0680 
     74 H74        33.9684  -41.8142  -56.1460 H         1 UNK         0.0650 
     75 H75        34.5044  -41.5722  -54.5020 H         1 UNK         0.0650 
     76 H76        33.1766  -43.4983  -52.8288 H         1 UNK         0.1397 
     77 H77        28.9542  -42.8922  -53.2948 H         1 UNK         0.1363 
     78 H78        31.6526  -41.5058  -56.3132 H         1 UNK         0.1355 
     79 H79        28.1885  -41.3841  -55.0012 H         1 UNK         0.0707 
     80 H80        29.2759  -40.6686  -56.1653 H         1 UNK         0.0707 
     81 H81        26.3428  -42.3715  -57.9921 H         1 UNK         0.1034 
     82 H82        26.4768  -41.5281  -56.4875 H         1 UNK         0.1034 
     83 H83        26.3917  -43.8182  -55.2957 H         1 UNK         0.0482 
     84 H84        23.6897  -45.1105  -56.0661 H         1 UNK         0.3460 
     85 H85        22.5575  -43.8924  -55.5319 H         1 UNK         0.3460 
     86 H86        26.4714  -45.6686  -56.4654 H         1 UNK         0.2989 
     87 H87        24.8095  -47.1711  -58.2118 H         1 UNK         0.0559 
     88 H88        26.0906  -46.1647  -60.8011 H         1 UNK         0.0848 
     89 H89        24.3778  -46.4018  -60.4973 H         1 UNK         0.0848 
     90 H90        25.4507  -47.7895  -60.5530 H         1 UNK         0.0848 
     91 H91        26.7206  -48.0571  -57.6512 H         1 UNK         0.3144 
     92 H92        29.7519  -48.3645  -59.0351 H         1 UNK         0.0727 
     93 H93        30.9865  -47.8293  -56.8728 H         1 UNK         0.0790 
     94 H94        29.7455  -46.6271  -56.5139 H         1 UNK         0.0790 
     95 H95        30.7620  -46.4415  -57.9269 H         1 UNK         0.0790 
     96 H96        28.8727  -49.0872  -56.3868 H         1 UNK         0.3215 
     97 H97        26.4731  -51.4995  -57.3722 H         1 UNK         0.0863 
     98 H98        29.2439  -51.9233  -56.1332 H         1 UNK         0.0808 
     99 H99        28.4923  -52.8796  -57.3955 H         1 UNK         0.0808 
    100 H100       27.8252  -52.9098  -55.7709 H         1 UNK         0.0808 
    101 H101       27.5855  -50.3977  -54.9007 H         1 UNK         0.3118 
    102 H102       25.0633  -47.8912  -54.5459 H         1 UNK         0.0546 
    103 H103       24.5826  -49.0772  -52.4211 H         1 UNK         0.0828 
    104 H104       25.3564  -50.5415  -53.0289 H         1 UNK         0.0828 
    105 H105       23.8793  -49.9469  -53.7733 H         1 UNK         0.0828 
    106 H106       27.1739  -48.8659  -52.8393 H         1 UNK         0.3005 
    107 H107       29.8108  -47.0287  -54.2147 H         1 UNK         0.1257 
    108 H108       28.3449  -46.2398  -51.6431 H         1 UNK         0.0775 
    109 H109       28.7302  -45.1642  -52.9612 H         1 UNK         0.0775 
    110 H110       29.8626  -43.5790  -51.1269 H         1 UNK         0.0840 
    111 H111       31.5842  -43.6868  -50.8856 H         1 UNK         0.0840 
    112 H112       29.7388  -48.4168  -51.7945 H         1 UNK         0.2987 
    113 H113       29.9617  -50.5859  -51.4875 H         1 UNK         0.0785 
    114 H114       29.8729  -52.9481  -52.1910 H         1 UNK         0.0798 
    115 H115       28.4822  -52.0710  -52.8084 H         1 UNK         0.0798 
    116 H116       29.8029  -52.4827  -53.8862 H         1 UNK         0.0798 
    117 H117       32.1641  -50.4990  -51.7098 H         1 UNK         0.3079 
    118 H118       34.2452  -51.4909  -52.2548 H         1 UNK         0.0794 
    119 H119       34.7545  -52.8420  -54.2571 H         1 UNK         0.0786 
    120 H120       35.9878  -51.6103  -54.0343 H         1 UNK         0.0786 
    121 H121       34.7518  -51.4108  -55.2749 H         1 UNK         0.0786 
    122 H122       34.7154  -49.2334  -54.0631 H         1 UNK         0.3032 
    123 H123       33.4850  -46.7635  -51.9844 H         1 UNK         0.1094 
    124 H124       36.4819  -47.3978  -51.8066 H         1 UNK         0.0794 
    125 H125       35.7397  -45.8213  -51.5248 H         1 UNK         0.0794 
    126 H126       35.4054  -47.1574  -50.4373 H         1 UNK         0.0794 
    127 H127       35.5524  -46.6251  -53.9624 H         1 UNK         0.3016 
@<TRIPOS>BOND
     1    1    2 1    
     2    1   67 1    
     3    1   68 1    
     4    1   69 1    
     5    2    3 2    
     6    2    4 am   BACKBONE|DICT|INTERRES
     7    4    5 1    
     8    4   70 1    
     9    5    6 1    
    10    5   65 1    
    11    5   71 1    
    12    6    7 1    
    13    6   72 1    
    14    6   73 1    
    15    7    8 1    
    16    8    9 1    
    17    8   74 1    
    18    8   75 1    
    19    9   10 ar   
    20    9   14 ar   
    21   10   11 ar   
    22   10   76 1    
    23   11   12 ar   
    24   11   48 1    
    25   12   13 ar   
    26   12   77 1    
    27   13   14 ar   
    28   13   15 1    
    29   14   78 1    
    30   15   16 1    
    31   15   79 1    
    32   15   80 1    
    33   16   17 1    
    34   17   18 1    
    35   17   81 1    
    36   17   82 1    
    37   18   19 1    
    38   18   22 1    
    39   18   83 1    
    40   19   20 am   BACKBONE|DICT|INTERRES
    41   19   21 2    
    42   20   84 1    
    43   20   85 1    
    44   22   23 am   BACKBONE|DICT|INTERRES
    45   22   86 1    
    46   23   24 2    
    47   23   25 1    
    48   25   26 1    
    49   25   27 1    
    50   25   87 1    
    51   26   88 1    
    52   26   89 1    
    53   26   90 1    
    54   27   28 am   BACKBONE|DICT|INTERRES
    55   27   91 1    
    56   28   29 2    
    57   28   30 1    
    58   30   31 1    
    59   30   32 1    
    60   30   92 1    
    61   31   93 1    
    62   31   94 1    
    63   31   95 1    
    64   32   33 am   BACKBONE|DICT|INTERRES
    65   32   96 1    
    66   33   34 2    
    67   33   35 1    
    68   35   36 1    
    69   35   37 1    
    70   35   97 1    
    71   36   98 1    
    72   36   99 1    
    73   36  100 1    
    74   37   38 am   BACKBONE|DICT|INTERRES
    75   37  101 1    
    76   38   39 2    
    77   38   40 1    
    78   40   41 1    
    79   40   42 1    
    80   40  102 1    
    81   41  103 1    
    82   41  104 1    
    83   41  105 1    
    84   42   43 am   BACKBONE|DICT|INTERRES
    85   42  106 1    
    86   43   44 2    
    87   43   45 1    
    88   45   46 1    
    89   45   49 1    
    90   45  107 1    
    91   46   47 1    
    92   46  108 1    
    93   46  109 1    
    94   47   48 1    
    95   48  110 1    
    96   48  111 1    
    97   49   50 am   BACKBONE|DICT|INTERRES
    98   49  112 1    
    99   50   51 2    
   100   50   52 1    
   101   52   53 1    
   102   52   54 1    
   103   52  113 1    
   104   53  114 1    
   105   53  115 1    
   106   53  116 1    
   107   54   55 am   BACKBONE|DICT|INTERRES
   108   54  117 1    
   109   55   56 2    
   110   55   57 1    
   111   57   58 1    
   112   57   59 1    
   113   57  118 1    
   114   58  119 1    
   115   58  120 1    
   116   58  121 1    
   117   59   60 am   BACKBONE|DICT|INTERRES
   118   59  122 1    
   119   60   61 2    
   120   60   62 1    
   121   62   63 1    
   122   62   64 1    
   123   62  123 1    
   124   63  124 1    
   125   63  125 1    
   126   63  126 1    
   127   64   65 am   BACKBONE|DICT|INTERRES
   128   64  127 1    
   129   65   66 2    
@<TRIPOS>SUBSTRUCTURE
     1 UNK         1 GROUP             0       ****    0 ROOT    
