@<TRIPOS>MOLECULE
3R134
127   129    1
SMALL
USER_CHARGES


@<TRIPOS>ATOM
      1 CA         37.2454  -46.6884  -55.9305 C.3       0 UNK        -0.1968 
      2 C          35.9381  -46.6747  -55.1540 C.2       0 UNK         0.4852 
      3 O          35.1857  -47.6486  -55.2130 O.2       0 UNK        -0.5359 
      4 N          35.6699  -45.5874  -54.4154 N.am      1 UNK        -0.4300 
      5 CA         34.4490  -45.3478  -53.6300 C.3       1 UNK         0.0863 
      6 C6         34.4948  -43.9872  -52.8959 C.3       11 UNK        -0.0953 
      7 S7         34.3996  -42.6030  -54.0802 S.3       11 UNK        -0.2369 
      8 C8         32.7842  -41.8597  -53.6772 C.3       11 UNK         0.0226 
      9 C9         31.6189  -42.8194  -53.8869 C.ar      11 UNK        -0.0699 
     10 C10        30.9783  -43.3980  -52.7880 C.ar      11 UNK        -0.0804 
     11 C11        29.8962  -44.2658  -52.9649 C.ar      11 UNK        -0.0871 
     12 C12        29.4446  -44.5458  -54.2587 C.ar      11 UNK        -0.1008 
     13 C13        30.0696  -43.9633  -55.3663 C.ar      11 UNK        -0.0735 
     14 C14        31.1587  -43.1061  -55.1747 C.ar      11 UNK        -0.0945 
     15 C15        29.5719  -44.2472  -56.7742 C.3       11 UNK         0.0169 
     16 S16        28.3802  -42.9789  -57.3045 S.3       11 UNK        -0.2669 
     17 C17        28.5525  -43.0451  -59.1215 C.3       11 UNK        -0.0850 
     18 CA         27.1937  -43.1866  -59.8526 C.3       10 UNK         0.0855 
     19 C          27.3970  -43.0518  -61.3878 C.2       10 UNK         0.5543 
     20 N          27.2518  -41.8509  -61.9301 N.am      10 UNK        -0.7343 
     21 O          27.7306  -44.0141  -62.0769 O.2       10 UNK        -0.5027 
     22 N          26.5110  -44.4323  -59.4746 N.am      10 UNK        -0.4495 
     23 C          25.2791  -44.7910  -59.8593 C.2       10 UNK         0.4903 
     24 O          24.5288  -44.0779  -60.5265 O.2       10 UNK        -0.4860 
     25 CA         24.7952  -46.1859  -59.4282 C.3       9 UNK         0.0227 
     26 CB         25.0426  -47.2075  -60.5504 C.3       9 UNK        -0.1964 
     27 N          25.4263  -46.6657  -58.1960 N.am      9 UNK        -0.4231 
     28 C          25.1232  -46.2395  -56.9614 C.2       9 UNK         0.5014 
     29 O          24.2936  -45.3568  -56.7348 O.2       9 UNK        -0.5270 
     30 CA         25.8756  -46.8997  -55.7845 C.3       8 UNK         0.0284 
     31 CB         25.0217  -46.9682  -54.5014 C.3       8 UNK        -0.1977 
     32 N          26.4569  -48.2160  -56.0889 N.am      8 UNK        -0.4342 
     33 C          25.8197  -49.3296  -56.4877 C.2       8 UNK         0.5039 
     34 O          24.6037  -49.4113  -56.6602 O.2       8 UNK        -0.5547 
     35 CA         26.7005  -50.5585  -56.7513 C.3       7 UNK         0.0281 
     36 CB         27.5762  -50.3534  -58.0003 C.3       7 UNK        -0.1963 
     37 N          27.5495  -50.8339  -55.5942 N.am      7 UNK        -0.4444 
     38 C          27.2355  -51.6804  -54.6037 C.2       7 UNK         0.5104 
     39 O          26.2377  -52.4022  -54.6050 O.2       7 UNK        -0.5100 
     40 CA         28.1920  -51.7276  -53.3971 C.3       6 UNK         0.0396 
     41 CB         29.2001  -52.8762  -53.5552 C.3       6 UNK        -0.1801 
     42 N          28.9061  -50.4627  -53.1907 N.am      6 UNK        -0.4747 
     43 C          28.3129  -49.3372  -52.7574 C.2       6 UNK         0.5012 
     44 O          27.1340  -49.2939  -52.4046 O.2       6 UNK        -0.5003 
     45 CA         29.1424  -48.0334  -52.7169 C.3       5 UNK         0.0782 
     46 C46        29.4872  -47.6979  -51.2426 C.3       11 UNK        -0.0868 
     47 S47        30.2962  -46.0935  -50.9344 S.3       11 UNK        -0.2515 
     48 C48        29.2159  -44.8716  -51.7452 C.3       11 UNK         0.0199 
     49 N          30.3132  -48.0476  -53.6086 N.am      5 UNK        -0.4607 
     50 C          30.2378  -48.1812  -54.9425 C.2       4 UNK         0.5031 
     51 O          29.1710  -48.2466  -55.5549 O.2       4 UNK        -0.5119 
     52 CA         31.5427  -48.3267  -55.7418 C.3       4 UNK         0.0263 
     53 CB         31.9699  -46.9703  -56.3172 C.3       4 UNK        -0.1967 
     54 N          32.6559  -48.9375  -55.0081 N.am      4 UNK        -0.4237 
     55 C          32.6444  -50.1706  -54.4776 C.2       3 UNK         0.4908 
     56 O          31.6505  -50.8963  -54.4595 O.2       3 UNK        -0.5102 
     57 CA         33.9548  -50.6818  -53.8618 C.3       3 UNK         0.0241 
     58 CB         34.9199  -51.1618  -54.9584 C.3       3 UNK        -0.1971 
     59 N          34.5965  -49.6389  -53.0640 N.am      3 UNK        -0.4139 
     60 C          34.4192  -49.4807  -51.7449 C.2       2 UNK         0.5016 
     61 O          33.8008  -50.2748  -51.0348 O.2       2 UNK        -0.5319 
     62 CA         35.0159  -48.2137  -51.0999 C.3       2 UNK         0.0286 
     63 CB         36.3932  -48.5189  -50.4893 C.3       2 UNK        -0.1963 
     64 N          35.1362  -47.0693  -52.0108 N.am      2 UNK        -0.4790 
     65 C          34.1101  -46.4897  -52.6525 C.2       1 UNK         0.5024 
     66 O          32.9449  -46.8673  -52.5512 O.2       1 UNK        -0.4888 
     67 H67        37.8603  -47.5299  -55.6126 H         1 UNK         0.0892 
     68 H68        37.0448  -46.7962  -56.9960 H         1 UNK         0.0892 
     69 H69        37.8182  -45.7731  -55.7832 H         1 UNK         0.0892 
     70 H70        36.3284  -44.8214  -54.4196 H         1 UNK         0.3107 
     71 H71        33.6260  -45.3074  -54.3425 H         1 UNK         0.0773 
     72 H72        35.4145  -43.8912  -52.3162 H         1 UNK         0.0680 
     73 H73        33.6801  -43.8979  -52.1758 H         1 UNK         0.0680 
     74 H74        32.6397  -40.9780  -54.3031 H         1 UNK         0.0650 
     75 H75        32.8064  -41.4991  -52.6476 H         1 UNK         0.0650 
     76 H76        31.3227  -43.1770  -51.7870 H         1 UNK         0.1397 
     77 H77        28.6027  -45.2066  -54.4066 H         1 UNK         0.1363 
     78 H78        31.6431  -42.6521  -56.0285 H         1 UNK         0.1355 
     79 H79        30.4237  -44.2675  -57.4556 H         1 UNK         0.0707 
     80 H80        29.1049  -45.2321  -56.8278 H         1 UNK         0.0707 
     81 H81        29.0555  -42.1263  -59.4301 H         1 UNK         0.1034 
     82 H82        29.2191  -43.8603  -59.4094 H         1 UNK         0.1034 
     83 H83        26.5494  -42.3665  -59.5286 H         1 UNK         0.0482 
     84 H84        26.9882  -41.0542  -61.3709 H         1 UNK         0.3460 
     85 H85        27.3960  -41.7399  -62.9218 H         1 UNK         0.3460 
     86 H86        27.0496  -45.0825  -58.9248 H         1 UNK         0.2989 
     87 H87        23.7180  -46.1241  -59.2588 H         1 UNK         0.0559 
     88 H88        26.1053  -47.3219  -60.7685 H         1 UNK         0.0848 
     89 H89        24.5538  -46.8961  -61.4748 H         1 UNK         0.0848 
     90 H90        24.6439  -48.1884  -60.2904 H         1 UNK         0.0848 
     91 H91        26.1096  -47.4025  -58.2867 H         1 UNK         0.3144 
     92 H92        26.7225  -46.2446  -55.5774 H         1 UNK         0.0727 
     93 H93        24.7006  -45.9745  -54.1870 H         1 UNK         0.0790 
     94 H94        25.5835  -47.4004  -53.6738 H         1 UNK         0.0790 
     95 H95        24.1241  -47.5700  -54.6470 H         1 UNK         0.0790 
     96 H96        27.4708  -48.2653  -55.9754 H         1 UNK         0.3215 
     97 H97        26.0426  -51.4097  -56.9416 H         1 UNK         0.0863 
     98 H98        28.1492  -51.2523  -58.2286 H         1 UNK         0.0808 
     99 H99        28.2837  -49.5322  -57.8796 H         1 UNK         0.0808 
    100 H100       26.9626  -50.1323  -58.8748 H         1 UNK         0.0808 
    101 H101       28.3683  -50.2495  -55.4800 H         1 UNK         0.3118 
    102 H102       27.5933  -51.9278  -52.5059 H         1 UNK         0.0546 
    103 H103       29.7875  -52.7763  -54.4685 H         1 UNK         0.0828 
    104 H104       28.6874  -53.8376  -53.6051 H         1 UNK         0.0828 
    105 H105       29.8915  -52.9201  -52.7137 H         1 UNK         0.0828 
    106 H106       29.8801  -50.4363  -53.4780 H         1 UNK         0.3005 
    107 H107       28.4719  -47.2640  -53.0994 H         1 UNK         0.1257 
    108 H108       30.1386  -48.4712  -50.8305 H         1 UNK         0.0775 
    109 H109       28.5842  -47.7117  -50.6283 H         1 UNK         0.0775 
    110 H110       28.2480  -45.3050  -51.9968 H         1 UNK         0.0840 
    111 H111       29.0028  -44.0750  -51.0309 H         1 UNK         0.0840 
    112 H112       31.2218  -47.9168  -53.1753 H         1 UNK         0.2987 
    113 H113       31.3289  -48.9907  -56.5818 H         1 UNK         0.0785 
    114 H114       32.9415  -47.0233  -56.8084 H         1 UNK         0.0798 
    115 H115       32.0173  -46.2062  -55.5432 H         1 UNK         0.0798 
    116 H116       31.2508  -46.6303  -57.0623 H         1 UNK         0.0798 
    117 H117       33.5322  -48.4189  -55.0052 H         1 UNK         0.3079 
    118 H118       33.7148  -51.5399  -53.2300 H         1 UNK         0.0794 
    119 H119       34.4635  -51.9483  -55.5611 H         1 UNK         0.0786 
    120 H120       35.8331  -51.5726  -54.5277 H         1 UNK         0.0786 
    121 H121       35.2036  -50.3552  -55.6355 H         1 UNK         0.0786 
    122 H122       35.0781  -48.9103  -53.5794 H         1 UNK         0.3032 
    123 H123       34.3389  -47.9196  -50.2944 H         1 UNK         0.1094 
    124 H124       36.7837  -47.6620  -49.9400 H         1 UNK         0.0794 
    125 H125       36.3324  -49.3508  -49.7859 H         1 UNK         0.0794 
    126 H126       37.1223  -48.7912  -51.2534 H         1 UNK         0.0794 
    127 H127       36.0661  -46.7102  -52.1737 H         1 UNK         0.3016 
@<TRIPOS>BOND
     1    1    2 1    
     2    1   67 1    
     3    1   68 1    
     4    1   69 1    
     5    2    3 2    
     6    2    4 am   BACKBONE|DICT|INTERRES
     7    4    5 1    
     8    4   70 1    
     9    5    6 1    
    10    5   65 1    
    11    5   71 1    
    12    6    7 1    
    13    6   72 1    
    14    6   73 1    
    15    7    8 1    
    16    8    9 1    
    17    8   74 1    
    18    8   75 1    
    19    9   10 ar   
    20    9   14 ar   
    21   10   11 ar   
    22   10   76 1    
    23   11   12 ar   
    24   11   48 1    
    25   12   13 ar   
    26   12   77 1    
    27   13   14 ar   
    28   13   15 1    
    29   14   78 1    
    30   15   16 1    
    31   15   79 1    
    32   15   80 1    
    33   16   17 1    
    34   17   18 1    
    35   17   81 1    
    36   17   82 1    
    37   18   19 1    
    38   18   22 1    
    39   18   83 1    
    40   19   20 am   BACKBONE|DICT|INTERRES
    41   19   21 2    
    42   20   84 1    
    43   20   85 1    
    44   22   23 am   BACKBONE|DICT|INTERRES
    45   22   86 1    
    46   23   24 2    
    47   23   25 1    
    48   25   26 1    
    49   25   27 1    
    50   25   87 1    
    51   26   88 1    
    52   26   89 1    
    53   26   90 1    
    54   27   28 am   BACKBONE|DICT|INTERRES
    55   27   91 1    
    56   28   29 2    
    57   28   30 1    
    58   30   31 1    
    59   30   32 1    
    60   30   92 1    
    61   31   93 1    
    62   31   94 1    
    63   31   95 1    
    64   32   33 am   BACKBONE|DICT|INTERRES
    65   32   96 1    
    66   33   34 2    
    67   33   35 1    
    68   35   36 1    
    69   35   37 1    
    70   35   97 1    
    71   36   98 1    
    72   36   99 1    
    73   36  100 1    
    74   37   38 am   BACKBONE|DICT|INTERRES
    75   37  101 1    
    76   38   39 2    
    77   38   40 1    
    78   40   41 1    
    79   40   42 1    
    80   40  102 1    
    81   41  103 1    
    82   41  104 1    
    83   41  105 1    
    84   42   43 am   BACKBONE|DICT|INTERRES
    85   42  106 1    
    86   43   44 2    
    87   43   45 1    
    88   45   46 1    
    89   45   49 1    
    90   45  107 1    
    91   46   47 1    
    92   46  108 1    
    93   46  109 1    
    94   47   48 1    
    95   48  110 1    
    96   48  111 1    
    97   49   50 am   BACKBONE|DICT|INTERRES
    98   49  112 1    
    99   50   51 2    
   100   50   52 1    
   101   52   53 1    
   102   52   54 1    
   103   52  113 1    
   104   53  114 1    
   105   53  115 1    
   106   53  116 1    
   107   54   55 am   BACKBONE|DICT|INTERRES
   108   54  117 1    
   109   55   56 2    
   110   55   57 1    
   111   57   58 1    
   112   57   59 1    
   113   57  118 1    
   114   58  119 1    
   115   58  120 1    
   116   58  121 1    
   117   59   60 am   BACKBONE|DICT|INTERRES
   118   59  122 1    
   119   60   61 2    
   120   60   62 1    
   121   62   63 1    
   122   62   64 1    
   123   62  123 1    
   124   63  124 1    
   125   63  125 1    
   126   63  126 1    
   127   64   65 am   BACKBONE|DICT|INTERRES
   128   64  127 1    
   129   65   66 2    
@<TRIPOS>SUBSTRUCTURE
     1 UNK         1 GROUP             0       ****    0 ROOT    
