@<TRIPOS>MOLECULE
3R134
127   129    1
SMALL
USER_CHARGES


@<TRIPOS>ATOM
      1 CA         36.5918  -47.1542  -51.0416 C.3       0 UNK        -0.1968 
      2 C          35.3772  -46.9745  -51.9387 C.2       0 UNK         0.4852 
      3 O          34.7035  -47.9585  -52.2435 O.2       0 UNK        -0.5359 
      4 N          35.0948  -45.7274  -52.3448 N.am      1 UNK        -0.4300 
      5 CA         34.0178  -45.2805  -53.2440 C.3       1 UNK         0.0863 
      6 C6         33.8696  -43.7372  -53.1810 C.3       11 UNK        -0.0953 
      7 S7         35.1040  -42.8931  -54.2291 S.3       11 UNK        -0.2369 
      8 C8         34.1033  -41.6456  -55.1148 C.3       11 UNK         0.0226 
      9 C9         32.9277  -42.2638  -55.8597 C.ar      11 UNK        -0.0699 
     10 C10        33.1468  -43.0547  -56.9924 C.ar      11 UNK        -0.0804 
     11 C11        32.0765  -43.6997  -57.6188 C.ar      11 UNK        -0.0871 
     12 C12        30.7810  -43.5167  -57.1291 C.ar      11 UNK        -0.1008 
     13 C13        30.5571  -42.7691  -55.9737 C.ar      11 UNK        -0.0735 
     14 C14        31.6271  -42.1092  -55.3654 C.ar      11 UNK        -0.0945 
     15 C15        29.1896  -42.7996  -55.3123 C.3       11 UNK         0.0169 
     16 S16        29.1474  -44.1863  -54.1328 S.3       11 UNK        -0.2669 
     17 C17        27.3926  -44.2659  -53.6520 C.3       11 UNK        -0.0850 
     18 CA         26.7248  -45.5960  -54.1142 C.3       10 UNK         0.0855 
     19 C          25.3699  -45.8853  -53.3989 C.2       10 UNK         0.5543 
     20 N          24.6568  -46.9338  -53.7874 N.am      10 UNK        -0.7343 
     21 O          24.9592  -45.1706  -52.4870 O.2       10 UNK        -0.5027 
     22 N          26.6577  -45.7202  -55.5840 N.am      10 UNK        -0.4495 
     23 C          25.8776  -44.9753  -56.3825 C.2       10 UNK         0.4903 
     24 O          25.1103  -44.1072  -55.9643 O.2       10 UNK        -0.4860 
     25 CA         25.9532  -45.1860  -57.9028 C.3       9 UNK         0.0227 
     26 CB         26.7653  -44.0541  -58.5628 C.3       9 UNK        -0.1964 
     27 N          26.4783  -46.4919  -58.3155 N.am      9 UNK        -0.4231 
     28 C          26.2334  -47.0439  -59.5128 C.2       9 UNK         0.5014 
     29 O          25.5017  -46.5393  -60.3664 O.2       9 UNK        -0.5270 
     30 CA         26.9284  -48.3761  -59.8292 C.3       8 UNK         0.0284 
     31 CB         28.4050  -48.1519  -60.1963 C.3       8 UNK        -0.1977 
     32 N          26.8284  -49.3367  -58.7315 N.am      8 UNK        -0.4342 
     33 C          25.7406  -50.0704  -58.4605 C.2       8 UNK         0.5039 
     34 O          24.6906  -50.0010  -59.1007 O.2       8 UNK        -0.5547 
     35 CA         25.8442  -51.0795  -57.3026 C.3       7 UNK         0.0281 
     36 CB         26.0803  -52.4976  -57.8483 C.3       7 UNK        -0.1963 
     37 N          26.9043  -50.7538  -56.3450 N.am      7 UNK        -0.4444 
     38 C          26.7945  -49.8109  -55.4012 C.2       7 UNK         0.5104 
     39 O          25.7946  -49.1119  -55.2384 O.2       7 UNK        -0.5100 
     40 CA         28.0359  -49.5815  -54.5234 C.3       6 UNK         0.0396 
     41 CB         28.2612  -50.7863  -53.5952 C.3       6 UNK        -0.1801 
     42 N          29.2624  -49.2992  -55.2826 N.am      6 UNK        -0.4747 
     43 C          29.4020  -48.3599  -56.2339 C.2       6 UNK         0.5012 
     44 O          28.4653  -47.6634  -56.6341 O.2       6 UNK        -0.5003 
     45 CA         30.8013  -48.1614  -56.8552 C.3       5 UNK         0.0782 
     46 C46        31.0282  -46.6831  -57.2499 C.3       11 UNK        -0.0868 
     47 S47        32.5959  -46.3706  -58.1336 S.3       11 UNK        -0.2515 
     48 C48        32.3190  -44.6762  -58.7605 C.3       11 UNK         0.0199 
     49 N          31.8445  -48.6388  -55.9456 N.am      5 UNK        -0.4607 
     50 C          32.6225  -49.7033  -56.1666 C.2       4 UNK         0.5031 
     51 O          32.5178  -50.4416  -57.1463 O.2       4 UNK        -0.5119 
     52 CA         33.6961  -50.0046  -55.1102 C.3       4 UNK         0.0263 
     53 CB         34.9499  -49.1528  -55.3674 C.3       4 UNK        -0.1967 
     54 N          33.2437  -49.7939  -53.7333 N.am      4 UNK        -0.4237 
     55 C          32.2731  -50.4878  -53.1216 C.2       3 UNK         0.4908 
     56 O          31.6026  -51.3602  -53.6733 O.2       3 UNK        -0.5102 
     57 CA         32.0007  -50.1484  -51.6496 C.3       3 UNK         0.0241 
     58 CB         33.0955  -50.7354  -50.7428 C.3       3 UNK        -0.1971 
     59 N          31.9288  -48.7006  -51.4572 N.am      3 UNK        -0.4139 
     60 C          30.7901  -47.9967  -51.3960 C.2       2 UNK         0.5016 
     61 O          29.6690  -48.5043  -51.3989 O.2       2 UNK        -0.5319 
     62 CA         30.9006  -46.4631  -51.3068 C.3       2 UNK         0.0286 
     63 CB         30.6054  -45.9825  -49.8768 C.3       2 UNK        -0.1963 
     64 N          32.1895  -45.9135  -51.7378 N.am      2 UNK        -0.4790 
     65 C          32.6567  -45.9622  -52.9932 C.2       1 UNK         0.5024 
     66 O          32.0866  -46.5463  -53.9155 O.2       1 UNK        -0.4888 
     67 H67        36.2922  -47.5940  -50.0908 H         1 UNK         0.0892 
     68 H68        37.0935  -46.2089  -50.8361 H         1 UNK         0.0892 
     69 H69        37.3091  -47.8237  -51.5154 H         1 UNK         0.0892 
     70 H70        35.7111  -44.9854  -52.0452 H         1 UNK         0.3107 
     71 H71        34.3119  -45.5667  -54.2561 H         1 UNK         0.0773 
     72 H72        33.9770  -43.3758  -52.1567 H         1 UNK         0.0680 
     73 H73        32.8699  -43.4286  -53.4801 H         1 UNK         0.0680 
     74 H74        34.7426  -41.1173  -55.8234 H         1 UNK         0.0650 
     75 H75        33.7566  -40.8986  -54.3990 H         1 UNK         0.0650 
     76 H76        34.1555  -43.2119  -57.3495 H         1 UNK         0.1397 
     77 H77        29.9577  -44.0434  -57.5868 H         1 UNK         0.1363 
     78 H78        31.4580  -41.5434  -54.4594 H         1 UNK         0.1355 
     79 H79        28.4045  -42.9238  -56.0596 H         1 UNK         0.0707 
     80 H80        28.9908  -41.8618  -54.7913 H         1 UNK         0.0707 
     81 H81        26.8504  -43.3989  -54.0319 H         1 UNK         0.1034 
     82 H82        27.3652  -44.1816  -52.5642 H         1 UNK         0.1034 
     83 H83        27.3785  -46.4029  -53.7826 H         1 UNK         0.0482 
     84 H84        23.7787  -47.1276  -53.3341 H         1 UNK         0.3460 
     85 H85        25.0218  -47.5836  -54.4791 H         1 UNK         0.3460 
     86 H86        27.2843  -46.4122  -55.9817 H         1 UNK         0.2989 
     87 H87        24.9223  -45.1118  -58.2563 H         1 UNK         0.0559 
     88 H88        26.6651  -44.0697  -59.6480 H         1 UNK         0.0848 
     89 H89        27.8244  -44.1342  -58.3252 H         1 UNK         0.0848 
     90 H90        26.4262  -43.0735  -58.2256 H         1 UNK         0.0848 
     91 H91        27.1032  -46.9741  -57.6745 H         1 UNK         0.3144 
     92 H92        26.4349  -48.8062  -60.7039 H         1 UNK         0.0727 
     93 H93        28.8906  -49.0859  -60.4797 H         1 UNK         0.0790 
     94 H94        28.9692  -47.7155  -59.3737 H         1 UNK         0.0790 
     95 H95        28.4940  -47.4720  -61.0448 H         1 UNK         0.0790 
     96 H96        27.6271  -49.4269  -58.1223 H         1 UNK         0.3215 
     97 H97        24.8858  -51.0727  -56.7781 H         1 UNK         0.0863 
     98 H98        26.0870  -53.2360  -57.0462 H         1 UNK         0.0808 
     99 H99        27.0270  -52.5735  -58.3847 H         1 UNK         0.0808 
    100 H100       25.2893  -52.7847  -58.5428 H         1 UNK         0.0808 
    101 H101       27.7653  -51.2779  -56.4098 H         1 UNK         0.3118 
    102 H102       27.8391  -48.7111  -53.8959 H         1 UNK         0.0546 
    103 H103       28.5478  -51.6822  -54.1468 H         1 UNK         0.0828 
    104 H104       27.3571  -51.0220  -53.0321 H         1 UNK         0.0828 
    105 H105       29.0446  -50.5846  -52.8670 H         1 UNK         0.0828 
    106 H106       30.0842  -49.8275  -55.0199 H         1 UNK         0.3005 
    107 H107       30.8034  -48.7507  -57.7745 H         1 UNK         0.1257 
    108 H108       30.2214  -46.3302  -57.8936 H         1 UNK         0.0775 
    109 H109       31.0072  -46.0635  -56.3518 H         1 UNK         0.0775 
    110 H110       33.1873  -44.3645  -59.3428 H         1 UNK         0.0840 
    111 H111       31.4724  -44.6750  -59.4490 H         1 UNK         0.0840 
    112 H112       32.0022  -48.0630  -55.1220 H         1 UNK         0.2987 
    113 H113       33.9705  -51.0569  -55.2093 H         1 UNK         0.0785 
    114 H114       34.7426  -48.0879  -55.2516 H         1 UNK         0.0798 
    115 H115       35.3261  -49.3047  -56.3800 H         1 UNK         0.0798 
    116 H116       35.7543  -49.4128  -54.6790 H         1 UNK         0.0798 
    117 H117       33.7593  -49.0980  -53.1938 H         1 UNK         0.3079 
    118 H118       31.0533  -50.6128  -51.3680 H         1 UNK         0.0794 
    119 H119       34.0781  -50.3158  -50.9622 H         1 UNK         0.0786 
    120 H120       33.1669  -51.8167  -50.8684 H         1 UNK         0.0786 
    121 H121       32.8795  -50.5452  -49.6914 H         1 UNK         0.0786 
    122 H122       32.8079  -48.1961  -51.4970 H         1 UNK         0.3032 
    123 H123       30.1319  -46.0581  -51.9686 H         1 UNK         0.1094 
    124 H124       30.5759  -44.8941  -49.8218 H         1 UNK         0.0794 
    125 H125       29.6358  -46.3472  -49.5345 H         1 UNK         0.0794 
    126 H126       31.3555  -46.3372  -49.1689 H         1 UNK         0.0794 
    127 H127       32.7421  -45.4415  -51.0365 H         1 UNK         0.3016 
@<TRIPOS>BOND
     1    1    2 1    
     2    1   67 1    
     3    1   68 1    
     4    1   69 1    
     5    2    3 2    
     6    2    4 am   BACKBONE|DICT|INTERRES
     7    4    5 1    
     8    4   70 1    
     9    5    6 1    
    10    5   65 1    
    11    5   71 1    
    12    6    7 1    
    13    6   72 1    
    14    6   73 1    
    15    7    8 1    
    16    8    9 1    
    17    8   74 1    
    18    8   75 1    
    19    9   10 ar   
    20    9   14 ar   
    21   10   11 ar   
    22   10   76 1    
    23   11   12 ar   
    24   11   48 1    
    25   12   13 ar   
    26   12   77 1    
    27   13   14 ar   
    28   13   15 1    
    29   14   78 1    
    30   15   16 1    
    31   15   79 1    
    32   15   80 1    
    33   16   17 1    
    34   17   18 1    
    35   17   81 1    
    36   17   82 1    
    37   18   19 1    
    38   18   22 1    
    39   18   83 1    
    40   19   20 am   BACKBONE|DICT|INTERRES
    41   19   21 2    
    42   20   84 1    
    43   20   85 1    
    44   22   23 am   BACKBONE|DICT|INTERRES
    45   22   86 1    
    46   23   24 2    
    47   23   25 1    
    48   25   26 1    
    49   25   27 1    
    50   25   87 1    
    51   26   88 1    
    52   26   89 1    
    53   26   90 1    
    54   27   28 am   BACKBONE|DICT|INTERRES
    55   27   91 1    
    56   28   29 2    
    57   28   30 1    
    58   30   31 1    
    59   30   32 1    
    60   30   92 1    
    61   31   93 1    
    62   31   94 1    
    63   31   95 1    
    64   32   33 am   BACKBONE|DICT|INTERRES
    65   32   96 1    
    66   33   34 2    
    67   33   35 1    
    68   35   36 1    
    69   35   37 1    
    70   35   97 1    
    71   36   98 1    
    72   36   99 1    
    73   36  100 1    
    74   37   38 am   BACKBONE|DICT|INTERRES
    75   37  101 1    
    76   38   39 2    
    77   38   40 1    
    78   40   41 1    
    79   40   42 1    
    80   40  102 1    
    81   41  103 1    
    82   41  104 1    
    83   41  105 1    
    84   42   43 am   BACKBONE|DICT|INTERRES
    85   42  106 1    
    86   43   44 2    
    87   43   45 1    
    88   45   46 1    
    89   45   49 1    
    90   45  107 1    
    91   46   47 1    
    92   46  108 1    
    93   46  109 1    
    94   47   48 1    
    95   48  110 1    
    96   48  111 1    
    97   49   50 am   BACKBONE|DICT|INTERRES
    98   49  112 1    
    99   50   51 2    
   100   50   52 1    
   101   52   53 1    
   102   52   54 1    
   103   52  113 1    
   104   53  114 1    
   105   53  115 1    
   106   53  116 1    
   107   54   55 am   BACKBONE|DICT|INTERRES
   108   54  117 1    
   109   55   56 2    
   110   55   57 1    
   111   57   58 1    
   112   57   59 1    
   113   57  118 1    
   114   58  119 1    
   115   58  120 1    
   116   58  121 1    
   117   59   60 am   BACKBONE|DICT|INTERRES
   118   59  122 1    
   119   60   61 2    
   120   60   62 1    
   121   62   63 1    
   122   62   64 1    
   123   62  123 1    
   124   63  124 1    
   125   63  125 1    
   126   63  126 1    
   127   64   65 am   BACKBONE|DICT|INTERRES
   128   64  127 1    
   129   65   66 2    
@<TRIPOS>SUBSTRUCTURE
     1 UNK         1 GROUP             0       ****    0 ROOT    
