@<TRIPOS>MOLECULE
3R134
127   129    1
SMALL
USER_CHARGES


@<TRIPOS>ATOM
      1 CA         34.7486  -46.8186  -57.3679 C.3       0 UNK        -0.1968 
      2 C          34.1177  -46.8010  -55.9845 C.2       0 UNK         0.4852 
      3 O          33.4150  -47.7440  -55.6280 O.2       0 UNK        -0.5359 
      4 N          34.3764  -45.7470  -55.1981 N.am      1 UNK        -0.4300 
      5 CA         33.8570  -45.5018  -53.8429 C.3       1 UNK         0.0863 
      6 C6         34.5318  -44.2365  -53.2520 C.3       11 UNK        -0.0953 
      7 S7         33.8083  -43.6274  -51.6930 S.3       11 UNK        -0.2369 
      8 C8         32.7571  -42.2614  -52.2774 C.3       11 UNK         0.0226 
      9 C9         31.4428  -42.7789  -52.8380 C.ar      11 UNK        -0.0699 
     10 C10        30.4538  -43.2312  -51.9606 C.ar      11 UNK        -0.0804 
     11 C11        29.2416  -43.7203  -52.4500 C.ar      11 UNK        -0.0871 
     12 C12        29.0128  -43.7325  -53.8287 C.ar      11 UNK        -0.1008 
     13 C13        30.0013  -43.3057  -54.7174 C.ar      11 UNK        -0.0735 
     14 C14        31.2146  -42.8200  -54.2181 C.ar      11 UNK        -0.0945 
     15 C15        29.7598  -43.4170  -56.2137 C.3       11 UNK         0.0169 
     16 S16        28.6127  -42.1392  -56.8074 S.3       11 UNK        -0.2669 
     17 C17        28.5143  -42.5878  -58.5732 C.3       11 UNK        -0.0850 
     18 CA         27.0525  -42.7333  -59.0976 C.3       10 UNK         0.0855 
     19 C          26.9753  -42.9200  -60.6462 C.2       10 UNK         0.5543 
     20 N          27.7585  -42.1719  -61.4169 N.am      10 UNK        -0.7343 
     21 O          26.1784  -43.7005  -61.1702 O.2       10 UNK        -0.5027 
     22 N          26.2369  -43.7228  -58.3652 N.am      10 UNK        -0.4495 
     23 C          26.4772  -45.0372  -58.2668 C.2       10 UNK         0.4903 
     24 O          27.5211  -45.5826  -58.6187 O.2       10 UNK        -0.4860 
     25 CA         25.3072  -45.8987  -57.7785 C.3       9 UNK         0.0227 
     26 CB         24.6238  -46.5765  -58.9846 C.3       9 UNK        -0.1964 
     27 N          25.7528  -46.8998  -56.8056 N.am      9 UNK        -0.4231 
     28 C          24.9222  -47.5918  -56.0120 C.2       9 UNK         0.5014 
     29 O          23.6963  -47.4547  -56.0386 O.2       9 UNK        -0.5270 
     30 CA         25.5445  -48.5749  -54.9980 C.3       8 UNK         0.0284 
     31 CB         24.4958  -49.4716  -54.3060 C.3       8 UNK        -0.1977 
     32 N          26.6342  -49.4006  -55.5263 N.am      8 UNK        -0.4342 
     33 C          26.6208  -50.2244  -56.5835 C.2       8 UNK         0.5039 
     34 O          25.6457  -50.3986  -57.3174 O.2       8 UNK        -0.5547 
     35 CA         27.9368  -50.9901  -56.8413 C.3       7 UNK         0.0281 
     36 CB         27.9245  -51.8080  -58.1505 C.3       7 UNK        -0.1963 
     37 N          29.1097  -50.1093  -56.7750 N.am      7 UNK        -0.4444 
     38 C          29.3632  -49.0399  -57.5444 C.2       7 UNK         0.5104 
     39 O          28.7040  -48.7294  -58.5371 O.2       7 UNK        -0.5100 
     40 CA         30.5417  -48.1582  -57.0857 C.3       6 UNK         0.0396 
     41 CB         30.7177  -46.8798  -57.9280 C.3       6 UNK        -0.1801 
     42 N          30.4675  -47.8269  -55.6564 N.am      6 UNK        -0.4747 
     43 C          29.4478  -47.2468  -55.0004 C.2       6 UNK         0.5012 
     44 O          28.4287  -46.8345  -55.5561 O.2       6 UNK        -0.5003 
     45 CA         29.5800  -47.1561  -53.4591 C.3       5 UNK         0.0782 
     46 C46        28.2421  -46.7896  -52.7425 C.3       11 UNK        -0.0868 
     47 S47        28.5240  -46.0279  -51.1115 S.3       11 UNK        -0.2515 
     48 C48        28.2007  -44.2734  -51.4892 C.3       11 UNK         0.0199 
     49 N          30.1967  -48.3691  -52.8995 N.am      5 UNK        -0.4607 
     50 C          29.6663  -49.6007  -52.9623 C.2       4 UNK         0.5031 
     51 O          28.5989  -49.8557  -53.5234 O.2       4 UNK        -0.5119 
     52 CA         30.4902  -50.7411  -52.3380 C.3       4 UNK         0.0263 
     53 CB         29.7781  -52.1076  -52.4307 C.3       4 UNK        -0.1967 
     54 N          31.8368  -50.8361  -52.9097 N.am      4 UNK        -0.4237 
     55 C          32.1728  -50.9382  -54.2045 C.2       3 UNK         0.4908 
     56 O          31.3588  -50.9607  -55.1303 O.2       3 UNK        -0.5102 
     57 CA         33.6823  -51.0018  -54.4985 C.3       3 UNK         0.0241 
     58 CB         33.9964  -51.0458  -56.0065 C.3       3 UNK        -0.1971 
     59 N          34.3795  -49.8660  -53.8876 N.am      3 UNK        -0.4139 
     60 C          34.8150  -49.8237  -52.6198 C.2       2 UNK         0.5016 
     61 O          34.6644  -50.7555  -51.8285 O.2       2 UNK        -0.5319 
     62 CA         35.5059  -48.5384  -52.1279 C.3       2 UNK         0.0286 
     63 CB         37.0318  -48.7244  -52.1161 C.3       2 UNK        -0.1963 
     64 N          35.1787  -47.3427  -52.9074 N.am      2 UNK        -0.4790 
     65 C          33.9880  -46.7254  -52.9051 C.2       1 UNK         0.5024 
     66 O          33.0134  -47.1144  -52.2571 O.2       1 UNK        -0.4888 
     67 H67        35.4400  -47.6566  -57.4511 H         1 UNK         0.0892 
     68 H68        33.9785  -46.9379  -58.1292 H         1 UNK         0.0892 
     69 H69        35.2968  -45.9009  -57.5799 H         1 UNK         0.0892 
     70 H70        34.9745  -45.0190  -55.5618 H         1 UNK         0.3107 
     71 H71        32.7897  -45.3014  -53.9550 H         1 UNK         0.0773 
     72 H72        35.5930  -44.4208  -53.0748 H         1 UNK         0.0680 
     73 H73        34.4979  -43.4261  -53.9816 H         1 UNK         0.0680 
     74 H74        32.5501  -41.5973  -51.4369 H         1 UNK         0.0650 
     75 H75        33.2920  -41.6594  -53.0133 H         1 UNK         0.0650 
     76 H76        30.6391  -43.2234  -50.8949 H         1 UNK         0.1397 
     77 H77        28.0767  -44.1034  -54.2227 H         1 UNK         0.1363 
     78 H78        31.9837  -42.4865  -54.9012 H         1 UNK         0.1355 
     79 H79        29.3423  -44.3992  -56.4379 H         1 UNK         0.0707 
     80 H80        30.7007  -43.3456  -56.7618 H         1 UNK         0.0707 
     81 H81        29.0783  -43.5019  -58.7647 H         1 UNK         0.1034 
     82 H82        29.0423  -41.8017  -59.1138 H         1 UNK         0.1034 
     83 H83        26.5513  -41.7819  -58.9158 H         1 UNK         0.0482 
     84 H84        28.3946  -41.4921  -61.0270 H         1 UNK         0.3460 
     85 H85        27.6967  -42.2783  -62.4176 H         1 UNK         0.3460 
     86 H86        25.3326  -43.3848  -58.0698 H         1 UNK         0.2989 
     87 H87        24.5839  -45.2452  -57.2861 H         1 UNK         0.0559 
     88 H88        23.7080  -47.0919  -58.6969 H         1 UNK         0.0848 
     89 H89        24.3533  -45.8432  -59.7458 H         1 UNK         0.0848 
     90 H90        25.2840  -47.3061  -59.4556 H         1 UNK         0.0848 
     91 H91        26.7603  -47.0057  -56.6976 H         1 UNK         0.3144 
     92 H92        25.9913  -47.9485  -54.2275 H         1 UNK         0.0727 
     93 H93        24.9576  -50.1122  -53.5545 H         1 UNK         0.0790 
     94 H94        23.9798  -50.1119  -55.0223 H         1 UNK         0.0790 
     95 H95        23.7392  -48.8730  -53.7973 H         1 UNK         0.0790 
     96 H96        27.4839  -49.3898  -54.9646 H         1 UNK         0.3215 
     97 H97        28.0440  -51.6950  -56.0151 H         1 UNK         0.0863 
     98 H98        28.8621  -52.3457  -58.2909 H         1 UNK         0.0808 
     99 H99        27.7646  -51.1759  -59.0243 H         1 UNK         0.0808 
    100 H100       27.1244  -52.5490  -58.1374 H         1 UNK         0.0808 
    101 H101       29.7607  -50.2996  -56.0150 H         1 UNK         0.3118 
    102 H102       31.4404  -48.7629  -57.2143 H         1 UNK         0.0546 
    103 H103       29.8427  -46.2370  -57.8644 H         1 UNK         0.0828 
    104 H104       30.8685  -47.1215  -58.9804 H         1 UNK         0.0828 
    105 H105       31.5779  -46.2996  -57.5980 H         1 UNK         0.0828 
    106 H106       31.2815  -48.1144  -55.1260 H         1 UNK         0.3005 
    107 H107       30.2889  -46.3433  -53.2907 H         1 UNK         0.1257 
    108 H108       27.6245  -46.1122  -53.3302 H         1 UNK         0.0775 
    109 H109       27.6180  -47.6696  -52.5918 H         1 UNK         0.0775 
    110 H110       27.1966  -44.1617  -51.9017 H         1 UNK         0.0840 
    111 H111       28.2121  -43.7021  -50.5598 H         1 UNK         0.0840 
    112 H112       31.0994  -48.2355  -52.4579 H         1 UNK         0.2987 
    113 H113       30.6098  -50.4974  -51.2813 H         1 UNK         0.0785 
    114 H114       30.3546  -52.8897  -51.9368 H         1 UNK         0.0798 
    115 H115       29.6187  -52.4121  -53.4659 H         1 UNK         0.0798 
    116 H116       28.8005  -52.0720  -51.9483 H         1 UNK         0.0798 
    117 H117       32.6033  -50.8168  -52.2449 H         1 UNK         0.3079 
    118 H118       34.0556  -51.9304  -54.0615 H         1 UNK         0.0794 
    119 H119       33.5522  -51.9276  -56.4698 H         1 UNK         0.0786 
    120 H120       35.0703  -51.0915  -56.1872 H         1 UNK         0.0786 
    121 H121       33.6049  -50.1744  -56.5312 H         1 UNK         0.0786 
    122 H122       34.4066  -49.0179  -54.4448 H         1 UNK         0.3032 
    123 H123       35.1736  -48.3712  -51.1006 H         1 UNK         0.1094 
    124 H124       37.3151  -49.5909  -51.5166 H         1 UNK         0.0794 
    125 H125       37.4280  -48.8799  -53.1204 H         1 UNK         0.0794 
    126 H126       37.5345  -47.8581  -51.6855 H         1 UNK         0.0794 
    127 H127       35.9100  -46.9684  -53.4950 H         1 UNK         0.3016 
@<TRIPOS>BOND
     1    1    2 1    
     2    1   67 1    
     3    1   68 1    
     4    1   69 1    
     5    2    3 2    
     6    2    4 am   BACKBONE|DICT|INTERRES
     7    4    5 1    
     8    4   70 1    
     9    5    6 1    
    10    5   65 1    
    11    5   71 1    
    12    6    7 1    
    13    6   72 1    
    14    6   73 1    
    15    7    8 1    
    16    8    9 1    
    17    8   74 1    
    18    8   75 1    
    19    9   10 ar   
    20    9   14 ar   
    21   10   11 ar   
    22   10   76 1    
    23   11   12 ar   
    24   11   48 1    
    25   12   13 ar   
    26   12   77 1    
    27   13   14 ar   
    28   13   15 1    
    29   14   78 1    
    30   15   16 1    
    31   15   79 1    
    32   15   80 1    
    33   16   17 1    
    34   17   18 1    
    35   17   81 1    
    36   17   82 1    
    37   18   19 1    
    38   18   22 1    
    39   18   83 1    
    40   19   20 am   BACKBONE|DICT|INTERRES
    41   19   21 2    
    42   20   84 1    
    43   20   85 1    
    44   22   23 am   BACKBONE|DICT|INTERRES
    45   22   86 1    
    46   23   24 2    
    47   23   25 1    
    48   25   26 1    
    49   25   27 1    
    50   25   87 1    
    51   26   88 1    
    52   26   89 1    
    53   26   90 1    
    54   27   28 am   BACKBONE|DICT|INTERRES
    55   27   91 1    
    56   28   29 2    
    57   28   30 1    
    58   30   31 1    
    59   30   32 1    
    60   30   92 1    
    61   31   93 1    
    62   31   94 1    
    63   31   95 1    
    64   32   33 am   BACKBONE|DICT|INTERRES
    65   32   96 1    
    66   33   34 2    
    67   33   35 1    
    68   35   36 1    
    69   35   37 1    
    70   35   97 1    
    71   36   98 1    
    72   36   99 1    
    73   36  100 1    
    74   37   38 am   BACKBONE|DICT|INTERRES
    75   37  101 1    
    76   38   39 2    
    77   38   40 1    
    78   40   41 1    
    79   40   42 1    
    80   40  102 1    
    81   41  103 1    
    82   41  104 1    
    83   41  105 1    
    84   42   43 am   BACKBONE|DICT|INTERRES
    85   42  106 1    
    86   43   44 2    
    87   43   45 1    
    88   45   46 1    
    89   45   49 1    
    90   45  107 1    
    91   46   47 1    
    92   46  108 1    
    93   46  109 1    
    94   47   48 1    
    95   48  110 1    
    96   48  111 1    
    97   49   50 am   BACKBONE|DICT|INTERRES
    98   49  112 1    
    99   50   51 2    
   100   50   52 1    
   101   52   53 1    
   102   52   54 1    
   103   52  113 1    
   104   53  114 1    
   105   53  115 1    
   106   53  116 1    
   107   54   55 am   BACKBONE|DICT|INTERRES
   108   54  117 1    
   109   55   56 2    
   110   55   57 1    
   111   57   58 1    
   112   57   59 1    
   113   57  118 1    
   114   58  119 1    
   115   58  120 1    
   116   58  121 1    
   117   59   60 am   BACKBONE|DICT|INTERRES
   118   59  122 1    
   119   60   61 2    
   120   60   62 1    
   121   62   63 1    
   122   62   64 1    
   123   62  123 1    
   124   63  124 1    
   125   63  125 1    
   126   63  126 1    
   127   64   65 am   BACKBONE|DICT|INTERRES
   128   64  127 1    
   129   65   66 2    
@<TRIPOS>SUBSTRUCTURE
     1 UNK         1 GROUP             0       ****    0 ROOT    
