@<TRIPOS>MOLECULE
3R134
127   129    1
SMALL
USER_CHARGES


@<TRIPOS>ATOM
      1 CA         31.7418  -45.9606  -58.6241 C.3       0 UNK        -0.1968 
      2 C          32.8286  -45.7027  -57.5895 C.2       0 UNK         0.4852 
      3 O          34.0024  -45.6172  -57.9534 O.2       0 UNK        -0.5359 
      4 N          32.4330  -45.5828  -56.3133 N.am      1 UNK        -0.4300 
      5 CA         33.2851  -45.3809  -55.1312 C.3       1 UNK         0.0863 
      6 C6         34.1675  -44.0941  -55.1854 C.3       11 UNK        -0.0953 
      7 S7         33.2655  -42.5742  -55.6542 S.3       11 UNK        -0.2369 
      8 C8         32.8936  -41.8212  -54.0382 C.3       11 UNK         0.0226 
      9 C9         31.8223  -42.6114  -53.3062 C.ar      11 UNK        -0.0699 
     10 C10        32.1697  -43.4908  -52.2787 C.ar      11 UNK        -0.0804 
     11 C11        31.1944  -44.2816  -51.6657 C.ar      11 UNK        -0.0871 
     12 C12        29.8598  -44.1702  -52.0671 C.ar      11 UNK        -0.1008 
     13 C13        29.5026  -43.2904  -53.0929 C.ar      11 UNK        -0.0735 
     14 C14        30.4851  -42.4981  -53.6934 C.ar      11 UNK        -0.0945 
     15 C15        28.0625  -43.2232  -53.5784 C.3       11 UNK         0.0169 
     16 S16        27.6481  -44.6384  -54.6495 S.3       11 UNK        -0.2669 
     17 C17        28.6691  -44.3174  -56.1308 C.3       11 UNK        -0.0850 
     18 CA         27.8690  -43.7040  -57.3090 C.3       10 UNK         0.0855 
     19 C          28.8453  -43.2761  -58.4454 C.2       10 UNK         0.5543 
     20 N          28.8858  -43.9581  -59.5837 N.am      10 UNK        -0.7343 
     21 O          29.5828  -42.3081  -58.2830 O.2       10 UNK        -0.5027 
     22 N          26.7811  -44.6050  -57.7143 N.am      10 UNK        -0.4495 
     23 C          25.8252  -44.3790  -58.6212 C.2       10 UNK         0.4903 
     24 O          25.6876  -43.3106  -59.2184 O.2       10 UNK        -0.4860 
     25 CA         24.8844  -45.5689  -58.9233 C.3       9 UNK         0.0227 
     26 CB         23.9780  -45.3111  -60.1419 C.3       9 UNK        -0.1964 
     27 N          25.6148  -46.8296  -59.1283 N.am      9 UNK        -0.4231 
     28 C          26.1708  -47.5661  -58.1574 C.2       9 UNK         0.5014 
     29 O          26.1041  -47.2680  -56.9612 O.2       9 UNK        -0.5270 
     30 CA         27.0091  -48.7754  -58.5970 C.3       8 UNK         0.0284 
     31 CB         28.3950  -48.3141  -59.0798 C.3       8 UNK        -0.1977 
     32 N          27.1872  -49.6638  -57.4530 N.am      8 UNK        -0.4342 
     33 C          26.3548  -50.6598  -57.1255 C.2       8 UNK         0.5039 
     34 O          25.4869  -51.1127  -57.8733 O.2       8 UNK        -0.5547 
     35 CA         26.4813  -51.1972  -55.6937 C.3       7 UNK         0.0281 
     36 CB         27.6885  -52.1388  -55.5586 C.3       7 UNK        -0.1963 
     37 N          26.6130  -50.0771  -54.7605 N.am      7 UNK        -0.4444 
     38 C          25.5843  -49.4073  -54.2236 C.2       7 UNK         0.5104 
     39 O          24.4111  -49.7641  -54.3445 O.2       7 UNK        -0.5100 
     40 CA         25.8893  -48.1067  -53.4465 C.3       6 UNK         0.0396 
     41 CB         25.2040  -48.0882  -52.0645 C.3       6 UNK        -0.1801 
     42 N          27.3137  -47.7597  -53.3343 N.am      6 UNK        -0.4747 
     43 C          28.2733  -48.4251  -52.6747 C.2       6 UNK         0.5012 
     44 O          28.0809  -49.4613  -52.0363 O.2       6 UNK        -0.5003 
     45 CA         29.7061  -47.8629  -52.7878 C.3       5 UNK         0.0782 
     46 C46        30.3028  -47.6867  -51.3684 C.3       11 UNK        -0.0868 
     47 S47        31.9493  -46.9056  -51.3570 S.3       11 UNK        -0.2515 
     48 C48        31.6008  -45.2863  -50.6031 C.3       11 UNK         0.0199 
     49 N          30.5574  -48.7085  -53.6383 N.am      5 UNK        -0.4607 
     50 C          30.2785  -49.1585  -54.8717 C.2       4 UNK         0.5031 
     51 O          29.2383  -48.8939  -55.4793 O.2       4 UNK        -0.5119 
     52 CA         31.3202  -50.0568  -55.5626 C.3       4 UNK         0.0263 
     53 CB         31.5832  -49.5887  -57.0043 C.3       4 UNK        -0.1967 
     54 N          32.5984  -50.1335  -54.8485 N.am      4 UNK        -0.4237 
     55 C          32.9387  -51.1090  -53.9930 C.2       3 UNK         0.4908 
     56 O          32.1624  -51.9951  -53.6347 O.2       3 UNK        -0.5102 
     57 CA         34.3835  -51.1353  -53.4598 C.3       3 UNK         0.0241 
     58 CB         35.1714  -52.2799  -54.1196 C.3       3 UNK        -0.1971 
     59 N          35.1024  -49.8803  -53.6880 N.am      3 UNK        -0.4139 
     60 C          35.1484  -48.8598  -52.8228 C.2       2 UNK         0.5016 
     61 O          34.6384  -48.8902  -51.7035 O.2       2 UNK        -0.5319 
     62 CA         35.8907  -47.5868  -53.2749 C.3       2 UNK         0.0286 
     63 CB         37.0147  -47.8561  -54.3017 C.3       2 UNK        -0.1963 
     64 N          34.9770  -46.5470  -53.7695 N.am      2 UNK        -0.4790 
     65 C          34.1107  -46.6466  -54.7904 C.2       1 UNK         0.5024 
     66 O          33.9450  -47.6890  -55.4294 O.2       1 UNK        -0.4888 
     67 H67        31.7082  -45.1420  -59.3425 H         1 UNK         0.0892 
     68 H68        31.9504  -46.8824  -59.1666 H         1 UNK         0.0892 
     69 H69        30.7560  -46.0525  -58.1704 H         1 UNK         0.0892 
     70 H70        31.4542  -45.6937  -56.1003 H         1 UNK         0.3107 
     71 H71        32.5846  -45.2708  -54.3041 H         1 UNK         0.0773 
     72 H72        34.9792  -44.2236  -55.9031 H         1 UNK         0.0680 
     73 H73        34.6520  -43.9144  -54.2251 H         1 UNK         0.0680 
     74 H74        32.5464  -40.7992  -54.1964 H         1 UNK         0.0650 
     75 H75        33.8057  -41.7472  -53.4440 H         1 UNK         0.0650 
     76 H76        33.2050  -43.5884  -51.9822 H         1 UNK         0.1397 
     77 H77        29.1026  -44.7887  -51.6053 H         1 UNK         0.1363 
     78 H78        30.2191  -41.8227  -54.4953 H         1 UNK         0.1355 
     79 H79        27.8753  -42.2932  -54.1178 H         1 UNK         0.0707 
     80 H80        27.3894  -43.2205  -52.7199 H         1 UNK         0.0707 
     81 H81        29.5120  -43.6801  -55.8670 H         1 UNK         0.1034 
     82 H82        29.1062  -45.2691  -56.4367 H         1 UNK         0.1034 
     83 H83        27.3981  -42.7854  -56.9548 H         1 UNK         0.0482 
     84 H84        28.2645  -44.7347  -59.7355 H         1 UNK         0.3460 
     85 H85        29.5133  -43.6612  -60.3137 H         1 UNK         0.3460 
     86 H86        26.7571  -45.5068  -57.2461 H         1 UNK         0.2989 
     87 H87        24.2366  -45.6857  -58.0518 H         1 UNK         0.0559 
     88 H88        24.5585  -45.1627  -61.0533 H         1 UNK         0.0848 
     89 H89        23.2924  -46.1417  -60.3107 H         1 UNK         0.0848 
     90 H90        23.3682  -44.4186  -59.9950 H         1 UNK         0.0848 
     91 H91        25.7464  -47.1189  -60.0873 H         1 UNK         0.3144 
     92 H92        26.4958  -49.2952  -59.4087 H         1 UNK         0.0727 
     93 H93        29.0032  -49.1616  -59.3960 H         1 UNK         0.0790 
     94 H94        28.9387  -47.7861  -58.2952 H         1 UNK         0.0790 
     95 H95        28.3151  -47.6405  -59.9338 H         1 UNK         0.0790 
     96 H96        27.8363  -49.3321  -56.7442 H         1 UNK         0.3215 
     97 H97        25.5789  -51.7655  -55.4573 H         1 UNK         0.0863 
     98 H98        27.8008  -52.4965  -54.5350 H         1 UNK         0.0808 
     99 H99        28.6188  -51.6525  -55.8485 H         1 UNK         0.0808 
    100 H100       27.5685  -53.0144  -56.1979 H         1 UNK         0.0808 
    101 H101       27.5380  -49.6772  -54.6521 H         1 UNK         0.3118 
    102 H102       25.4467  -47.3047  -54.0394 H         1 UNK         0.0546 
    103 H103       24.1227  -48.1911  -52.1632 H         1 UNK         0.0828 
    104 H104       25.3910  -47.1507  -51.5411 H         1 UNK         0.0828 
    105 H105       25.5476  -48.9041  -51.4283 H         1 UNK         0.0828 
    106 H106       27.5819  -46.9446  -53.8733 H         1 UNK         0.3005 
    107 H107       29.6568  -46.8805  -53.2619 H         1 UNK         0.1257 
    108 H108       30.4022  -48.6564  -50.8761 H         1 UNK         0.0775 
    109 H109       29.6256  -47.1065  -50.7392 H         1 UNK         0.0775 
    110 H110       30.8332  -45.3706  -49.8327 H         1 UNK         0.0840 
    111 H111       32.5000  -44.9410  -50.0905 H         1 UNK         0.0840 
    112 H112       31.4355  -48.9870  -53.2259 H         1 UNK         0.2987 
    113 H113       30.8834  -51.0550  -55.6211 H         1 UNK         0.0785 
    114 H114       30.6719  -49.6234  -57.6013 H         1 UNK         0.0798 
    115 H115       31.9555  -48.5655  -57.0336 H         1 UNK         0.0798 
    116 H116       32.3151  -50.2254  -57.5012 H         1 UNK         0.0798 
    117 H117       33.2631  -49.3900  -55.0539 H         1 UNK         0.3079 
    118 H118       34.3306  -51.3374  -52.3877 H         1 UNK         0.0794 
    119 H119       34.6863  -53.2413  -53.9439 H         1 UNK         0.0786 
    120 H120       36.1812  -52.3507  -53.7148 H         1 UNK         0.0786 
    121 H121       35.2505  -52.1474  -55.1994 H         1 UNK         0.0786 
    122 H122       35.5326  -49.7563  -54.5936 H         1 UNK         0.3032 
    123 H123       36.3634  -47.1839  -52.3772 H         1 UNK         0.1094 
    124 H124       37.6109  -46.9586  -54.4675 H         1 UNK         0.0794 
    125 H125       37.6968  -48.6290  -53.9445 H         1 UNK         0.0794 
    126 H126       36.6317  -48.1746  -55.2716 H         1 UNK         0.0794 
    127 H127       35.0098  -45.6755  -53.2599 H         1 UNK         0.3016 
@<TRIPOS>BOND
     1    1    2 1    
     2    1   67 1    
     3    1   68 1    
     4    1   69 1    
     5    2    3 2    
     6    2    4 am   BACKBONE|DICT|INTERRES
     7    4    5 1    
     8    4   70 1    
     9    5    6 1    
    10    5   65 1    
    11    5   71 1    
    12    6    7 1    
    13    6   72 1    
    14    6   73 1    
    15    7    8 1    
    16    8    9 1    
    17    8   74 1    
    18    8   75 1    
    19    9   10 ar   
    20    9   14 ar   
    21   10   11 ar   
    22   10   76 1    
    23   11   12 ar   
    24   11   48 1    
    25   12   13 ar   
    26   12   77 1    
    27   13   14 ar   
    28   13   15 1    
    29   14   78 1    
    30   15   16 1    
    31   15   79 1    
    32   15   80 1    
    33   16   17 1    
    34   17   18 1    
    35   17   81 1    
    36   17   82 1    
    37   18   19 1    
    38   18   22 1    
    39   18   83 1    
    40   19   20 am   BACKBONE|DICT|INTERRES
    41   19   21 2    
    42   20   84 1    
    43   20   85 1    
    44   22   23 am   BACKBONE|DICT|INTERRES
    45   22   86 1    
    46   23   24 2    
    47   23   25 1    
    48   25   26 1    
    49   25   27 1    
    50   25   87 1    
    51   26   88 1    
    52   26   89 1    
    53   26   90 1    
    54   27   28 am   BACKBONE|DICT|INTERRES
    55   27   91 1    
    56   28   29 2    
    57   28   30 1    
    58   30   31 1    
    59   30   32 1    
    60   30   92 1    
    61   31   93 1    
    62   31   94 1    
    63   31   95 1    
    64   32   33 am   BACKBONE|DICT|INTERRES
    65   32   96 1    
    66   33   34 2    
    67   33   35 1    
    68   35   36 1    
    69   35   37 1    
    70   35   97 1    
    71   36   98 1    
    72   36   99 1    
    73   36  100 1    
    74   37   38 am   BACKBONE|DICT|INTERRES
    75   37  101 1    
    76   38   39 2    
    77   38   40 1    
    78   40   41 1    
    79   40   42 1    
    80   40  102 1    
    81   41  103 1    
    82   41  104 1    
    83   41  105 1    
    84   42   43 am   BACKBONE|DICT|INTERRES
    85   42  106 1    
    86   43   44 2    
    87   43   45 1    
    88   45   46 1    
    89   45   49 1    
    90   45  107 1    
    91   46   47 1    
    92   46  108 1    
    93   46  109 1    
    94   47   48 1    
    95   48  110 1    
    96   48  111 1    
    97   49   50 am   BACKBONE|DICT|INTERRES
    98   49  112 1    
    99   50   51 2    
   100   50   52 1    
   101   52   53 1    
   102   52   54 1    
   103   52  113 1    
   104   53  114 1    
   105   53  115 1    
   106   53  116 1    
   107   54   55 am   BACKBONE|DICT|INTERRES
   108   54  117 1    
   109   55   56 2    
   110   55   57 1    
   111   57   58 1    
   112   57   59 1    
   113   57  118 1    
   114   58  119 1    
   115   58  120 1    
   116   58  121 1    
   117   59   60 am   BACKBONE|DICT|INTERRES
   118   59  122 1    
   119   60   61 2    
   120   60   62 1    
   121   62   63 1    
   122   62   64 1    
   123   62  123 1    
   124   63  124 1    
   125   63  125 1    
   126   63  126 1    
   127   64   65 am   BACKBONE|DICT|INTERRES
   128   64  127 1    
   129   65   66 2    
@<TRIPOS>SUBSTRUCTURE
     1 UNK         1 GROUP             0       ****    0 ROOT    
