@<TRIPOS>MOLECULE
3R134
127   129    1
SMALL
USER_CHARGES


@<TRIPOS>ATOM
      1 CA         37.8482  -47.9278  -52.3955 C.3       0 UNK        -0.1968 
      2 C          36.5439  -47.6488  -53.1262 C.2       0 UNK         0.4852 
      3 O          35.8245  -48.5869  -53.4742 O.2       0 UNK        -0.5359 
      4 N          36.2176  -46.3656  -53.3438 N.am      1 UNK        -0.4300 
      5 CA         35.0196  -45.9042  -54.0615 C.3       1 UNK         0.0863 
      6 C6         35.0816  -44.3904  -54.3782 C.3       11 UNK        -0.0953 
      7 S7         35.0164  -43.3151  -52.9011 S.3       11 UNK        -0.2369 
      8 C8         34.0479  -41.8957  -53.5085 C.3       11 UNK         0.0226 
      9 C9         32.6135  -42.2655  -53.8664 C.ar      11 UNK        -0.0699 
     10 C10        31.6829  -42.5441  -52.8600 C.ar      11 UNK        -0.0804 
     11 C11        30.3587  -42.8649  -53.1803 C.ar      11 UNK        -0.0871 
     12 C12        29.9690  -42.8852  -54.5238 C.ar      11 UNK        -0.1008 
     13 C13        30.8941  -42.6315  -55.5388 C.ar      11 UNK        -0.0735 
     14 C14        32.2131  -42.3142  -55.2056 C.ar      11 UNK        -0.0945 
     15 C15        30.4615  -42.7255  -56.9916 C.3       11 UNK         0.0169 
     16 S16        30.3299  -44.4667  -57.4948 S.3       11 UNK        -0.2669 
     17 C17        29.5130  -44.3100  -59.1181 C.3       11 UNK        -0.0850 
     18 CA         27.9775  -44.0942  -59.0239 C.3       10 UNK         0.0855 
     19 C          27.3410  -44.0217  -60.4442 C.2       10 UNK         0.5543 
     20 N          26.4201  -44.9036  -60.8174 N.am      10 UNK        -0.7343 
     21 O          27.6916  -43.1398  -61.2242 O.2       10 UNK        -0.5027 
     22 N          27.3392  -45.0579  -58.1152 N.am      10 UNK        -0.4495 
     23 C          26.1327  -44.9059  -57.5549 C.2       10 UNK         0.4903 
     24 O          25.4489  -43.8872  -57.6666 O.2       10 UNK        -0.4860 
     25 CA         25.6052  -46.1055  -56.7418 C.3       9 UNK         0.0227 
     26 CB         24.0689  -46.1031  -56.5957 C.3       9 UNK        -0.1964 
     27 N          26.0799  -47.4039  -57.2482 N.am      9 UNK        -0.4231 
     28 C          25.8961  -47.8929  -58.4854 C.2       9 UNK         0.5014 
     29 O          25.2501  -47.3104  -59.3583 O.2       9 UNK        -0.5270 
     30 CA         26.5803  -49.2180  -58.8498 C.3       8 UNK         0.0284 
     31 CB         27.7501  -48.9525  -59.8151 C.3       8 UNK        -0.1977 
     32 N          27.0965  -49.9517  -57.6896 N.am      8 UNK        -0.4342 
     33 C          26.7013  -51.1814  -57.3375 C.2       8 UNK         0.5039 
     34 O          25.7509  -51.7725  -57.8531 O.2       8 UNK        -0.5547 
     35 CA         27.5347  -51.9070  -56.2704 C.3       7 UNK         0.0281 
     36 CB         28.8415  -52.4352  -56.8853 C.3       7 UNK        -0.1963 
     37 N          27.8388  -51.0957  -55.0901 N.am      7 UNK        -0.4444 
     38 C          26.9550  -50.8295  -54.1184 C.2       7 UNK         0.5104 
     39 O          25.7662  -51.1476  -54.1664 O.2       7 UNK        -0.5100 
     40 CA         27.4908  -50.1168  -52.8637 C.3       6 UNK         0.0396 
     41 CB         28.2903  -51.0892  -51.9816 C.3       6 UNK        -0.1801 
     42 N          28.3158  -48.9515  -53.1782 N.am      6 UNK        -0.4747 
     43 C          27.8424  -47.8122  -53.7017 C.2       6 UNK         0.5012 
     44 O          26.6501  -47.6152  -53.9314 O.2       6 UNK        -0.5003 
     45 CA         28.8824  -46.7319  -54.0685 C.3       5 UNK         0.0782 
     46 C46        29.3251  -45.9290  -52.8178 C.3       11 UNK        -0.0868 
     47 S47        28.1996  -44.5402  -52.4556 S.3       11 UNK        -0.2515 
     48 C48        29.3667  -43.1869  -52.0637 C.3       11 UNK         0.0199 
     49 N          30.0269  -47.3005  -54.7865 N.am      5 UNK        -0.4607 
     50 C          29.9590  -47.9840  -55.9372 C.2       4 UNK         0.5031 
     51 O          28.9205  -48.1486  -56.5772 O.2       4 UNK        -0.5119 
     52 CA         31.2533  -48.6535  -56.4253 C.3       4 UNK         0.0263 
     53 CB         32.0955  -47.6826  -57.2663 C.3       4 UNK        -0.1967 
     54 N          32.0517  -49.1801  -55.3149 N.am      4 UNK        -0.4237 
     55 C          31.6876  -50.2233  -54.5543 C.2       3 UNK         0.4908 
     56 O          30.6722  -50.8895  -54.7492 O.2       3 UNK        -0.5102 
     57 CA         32.5741  -50.5432  -53.3405 C.3       3 UNK         0.0241 
     58 CB         33.8263  -51.3250  -53.7669 C.3       3 UNK        -0.1971 
     59 N          32.9602  -49.3348  -52.6081 N.am      3 UNK        -0.4139 
     60 C          32.0933  -48.5654  -51.9291 C.2       2 UNK         0.5016 
     61 O          30.9012  -48.8405  -51.7953 O.2       2 UNK        -0.5319 
     62 CA         32.6223  -47.2453  -51.3360 C.3       2 UNK         0.0286 
     63 CB         33.0634  -47.4510  -49.8789 C.3       2 UNK        -0.1963 
     64 N          33.7273  -46.6576  -52.0968 N.am      2 UNK        -0.4790 
     65 C          33.6866  -46.3142  -53.3937 C.2       1 UNK         0.5024 
     66 O          32.6646  -46.3760  -54.0754 O.2       1 UNK        -0.4888 
     67 H67        38.5051  -48.5314  -53.0211 H         1 UNK         0.0892 
     68 H68        37.6523  -48.4788  -51.4761 H         1 UNK         0.0892 
     69 H69        38.3755  -47.0099  -52.1362 H         1 UNK         0.0892 
     70 H70        36.8321  -45.6334  -53.0158 H         1 UNK         0.3107 
     71 H71        35.0304  -46.4234  -55.0225 H         1 UNK         0.0773 
     72 H72        34.2725  -44.1340  -55.0620 H         1 UNK         0.0680 
     73 H73        36.0000  -44.1626  -54.9213 H         1 UNK         0.0680 
     74 H74        34.0353  -41.1255  -52.7361 H         1 UNK         0.0650 
     75 H75        34.5608  -41.4574  -54.3660 H         1 UNK         0.0650 
     76 H76        31.9971  -42.5153  -51.8254 H         1 UNK         0.1397 
     77 H77        28.9497  -43.1300  -54.7888 H         1 UNK         0.1363 
     78 H78        32.9299  -42.1132  -55.9900 H         1 UNK         0.1355 
     79 H79        29.4982  -42.2290  -57.1144 H         1 UNK         0.0707 
     80 H80        31.1671  -42.2092  -57.6442 H         1 UNK         0.0707 
     81 H81        29.7301  -45.2184  -59.6832 H         1 UNK         0.1034 
     82 H82        29.9833  -43.4941  -59.6707 H         1 UNK         0.1034 
     83 H83        27.8204  -43.1057  -58.5890 H         1 UNK         0.0482 
     84 H84        26.1015  -45.6313  -60.1876 H         1 UNK         0.3460 
     85 H85        26.0212  -44.8340  -61.7399 H         1 UNK         0.3460 
     86 H86        27.8430  -45.9181  -57.9555 H         1 UNK         0.2989 
     87 H87        26.0274  -45.9813  -55.7464 H         1 UNK         0.0559 
     88 H88        23.7285  -46.9462  -55.9946 H         1 UNK         0.0848 
     89 H89        23.5691  -46.1555  -57.5634 H         1 UNK         0.0848 
     90 H90        23.7235  -45.1949  -56.1004 H         1 UNK         0.0848 
     91 H91        26.6730  -47.9275  -56.6168 H         1 UNK         0.3144 
     92 H92        25.8357  -49.8139  -59.3814 H         1 UNK         0.0727 
     93 H93        28.2087  -49.8847  -60.1456 H         1 UNK         0.0790 
     94 H94        28.5274  -48.3434  -59.3516 H         1 UNK         0.0790 
     95 H95        27.4121  -48.4253  -60.7085 H         1 UNK         0.0790 
     96 H96        27.8730  -49.5135  -57.1964 H         1 UNK         0.3215 
     97 H97        26.9560  -52.7730  -55.9404 H         1 UNK         0.0863 
     98 H98        29.3995  -53.0397  -56.1699 H         1 UNK         0.0808 
     99 H99        29.4917  -51.6238  -57.2142 H         1 UNK         0.0808 
    100 H100       28.6398  -53.0647  -57.7531 H         1 UNK         0.0808 
    101 H101       28.8152  -50.8433  -54.9480 H         1 UNK         0.3118 
    102 H102       26.6313  -49.7726  -52.2844 H         1 UNK         0.0546 
    103 H103       27.6905  -51.9612  -51.7177 H         1 UNK         0.0828 
    104 H104       28.6003  -50.6142  -51.0507 H         1 UNK         0.0828 
    105 H105       29.1883  -51.4498  -52.4844 H         1 UNK         0.0828 
    106 H106       29.3063  -49.0150  -52.9579 H         1 UNK         0.3005 
    107 H107       28.4065  -46.0471  -54.7739 H         1 UNK         0.1257 
    108 H108       30.3246  -45.5250  -52.9779 H         1 UNK         0.0775 
    109 H109       29.4048  -46.5602  -51.9310 H         1 UNK         0.0775 
    110 H110       28.7943  -42.2866  -51.8370 H         1 UNK         0.0840 
    111 H111       29.8987  -43.4525  -51.1487 H         1 UNK         0.0840 
    112 H112       30.9441  -47.1399  -54.3806 H         1 UNK         0.2987 
    113 H113       30.9694  -49.4930  -57.0635 H         1 UNK         0.0785 
    114 H114       32.3987  -46.8047  -56.6950 H         1 UNK         0.0798 
    115 H115       31.5285  -47.3269  -58.1276 H         1 UNK         0.0798 
    116 H116       32.9957  -48.1640  -57.6481 H         1 UNK         0.0798 
    117 H117       32.8748  -48.6556  -55.0562 H         1 UNK         0.3079 
    118 H118       31.9944  -51.1752  -52.6640 H         1 UNK         0.0794 
    119 H119       34.4518  -50.7499  -54.4508 H         1 UNK         0.0786 
    120 H120       33.5526  -52.2505  -54.2755 H         1 UNK         0.0786 
    121 H121       34.4364  -51.5965  -52.9053 H         1 UNK         0.0786 
    122 H122       33.9243  -49.0304  -52.7012 H         1 UNK         0.3032 
    123 H123       31.8005  -46.5281  -51.3447 H         1 UNK         0.1094 
    124 H124       33.9070  -48.1384  -49.8047 H         1 UNK         0.0794 
    125 H125       33.3544  -46.5084  -49.4149 H         1 UNK         0.0794 
    126 H126       32.2506  -47.8664  -49.2811 H         1 UNK         0.0794 
    127 H127       34.6118  -46.5685  -51.6183 H         1 UNK         0.3016 
@<TRIPOS>BOND
     1    1    2 1    
     2    1   67 1    
     3    1   68 1    
     4    1   69 1    
     5    2    3 2    
     6    2    4 am   BACKBONE|DICT|INTERRES
     7    4    5 1    
     8    4   70 1    
     9    5    6 1    
    10    5   65 1    
    11    5   71 1    
    12    6    7 1    
    13    6   72 1    
    14    6   73 1    
    15    7    8 1    
    16    8    9 1    
    17    8   74 1    
    18    8   75 1    
    19    9   10 ar   
    20    9   14 ar   
    21   10   11 ar   
    22   10   76 1    
    23   11   12 ar   
    24   11   48 1    
    25   12   13 ar   
    26   12   77 1    
    27   13   14 ar   
    28   13   15 1    
    29   14   78 1    
    30   15   16 1    
    31   15   79 1    
    32   15   80 1    
    33   16   17 1    
    34   17   18 1    
    35   17   81 1    
    36   17   82 1    
    37   18   19 1    
    38   18   22 1    
    39   18   83 1    
    40   19   20 am   BACKBONE|DICT|INTERRES
    41   19   21 2    
    42   20   84 1    
    43   20   85 1    
    44   22   23 am   BACKBONE|DICT|INTERRES
    45   22   86 1    
    46   23   24 2    
    47   23   25 1    
    48   25   26 1    
    49   25   27 1    
    50   25   87 1    
    51   26   88 1    
    52   26   89 1    
    53   26   90 1    
    54   27   28 am   BACKBONE|DICT|INTERRES
    55   27   91 1    
    56   28   29 2    
    57   28   30 1    
    58   30   31 1    
    59   30   32 1    
    60   30   92 1    
    61   31   93 1    
    62   31   94 1    
    63   31   95 1    
    64   32   33 am   BACKBONE|DICT|INTERRES
    65   32   96 1    
    66   33   34 2    
    67   33   35 1    
    68   35   36 1    
    69   35   37 1    
    70   35   97 1    
    71   36   98 1    
    72   36   99 1    
    73   36  100 1    
    74   37   38 am   BACKBONE|DICT|INTERRES
    75   37  101 1    
    76   38   39 2    
    77   38   40 1    
    78   40   41 1    
    79   40   42 1    
    80   40  102 1    
    81   41  103 1    
    82   41  104 1    
    83   41  105 1    
    84   42   43 am   BACKBONE|DICT|INTERRES
    85   42  106 1    
    86   43   44 2    
    87   43   45 1    
    88   45   46 1    
    89   45   49 1    
    90   45  107 1    
    91   46   47 1    
    92   46  108 1    
    93   46  109 1    
    94   47   48 1    
    95   48  110 1    
    96   48  111 1    
    97   49   50 am   BACKBONE|DICT|INTERRES
    98   49  112 1    
    99   50   51 2    
   100   50   52 1    
   101   52   53 1    
   102   52   54 1    
   103   52  113 1    
   104   53  114 1    
   105   53  115 1    
   106   53  116 1    
   107   54   55 am   BACKBONE|DICT|INTERRES
   108   54  117 1    
   109   55   56 2    
   110   55   57 1    
   111   57   58 1    
   112   57   59 1    
   113   57  118 1    
   114   58  119 1    
   115   58  120 1    
   116   58  121 1    
   117   59   60 am   BACKBONE|DICT|INTERRES
   118   59  122 1    
   119   60   61 2    
   120   60   62 1    
   121   62   63 1    
   122   62   64 1    
   123   62  123 1    
   124   63  124 1    
   125   63  125 1    
   126   63  126 1    
   127   64   65 am   BACKBONE|DICT|INTERRES
   128   64  127 1    
   129   65   66 2    
@<TRIPOS>SUBSTRUCTURE
     1 UNK         1 GROUP             0       ****    0 ROOT    
