@<TRIPOS>MOLECULE
3R134
127   129    1
SMALL
USER_CHARGES


@<TRIPOS>ATOM
      1 CA         37.1406  -48.1965  -55.3764 C.3       0 UNK        -0.1968 
      2 C          35.8036  -47.7439  -54.8113 C.2       0 UNK         0.4852 
      3 O          34.8336  -48.5009  -54.8654 O.2       0 UNK        -0.5359 
      4 N          35.7486  -46.5243  -54.2564 N.am      1 UNK        -0.4300 
      5 CA         34.5556  -45.8676  -53.6981 C.3       1 UNK         0.0863 
      6 C6         34.8914  -44.4653  -53.1406 C.3       11 UNK        -0.0953 
      7 S7         35.2884  -43.3112  -54.4954 S.3       11 UNK        -0.2369 
      8 C8         34.0213  -42.0186  -54.2869 C.3       11 UNK         0.0226 
      9 C9         32.5958  -42.5457  -54.4081 C.ar      11 UNK        -0.0699 
     10 C10        31.7788  -42.6236  -53.2754 C.ar      11 UNK        -0.0804 
     11 C11        30.4494  -43.0463  -53.3748 C.ar      11 UNK        -0.0871 
     12 C12        29.9390  -43.3848  -54.6334 C.ar      11 UNK        -0.1008 
     13 C13        30.7493  -43.3315  -55.7714 C.ar      11 UNK        -0.0735 
     14 C14        32.0778  -42.9111  -55.6540 C.ar      11 UNK        -0.0945 
     15 C15        30.1729  -43.7027  -57.1275 C.3       11 UNK         0.0169 
     16 S16        29.2529  -42.2993  -57.8282 S.3       11 UNK        -0.2669 
     17 C17        28.4975  -43.0433  -59.3129 C.3       11 UNK        -0.0850 
     18 CA         27.0043  -43.4048  -59.0884 C.3       10 UNK         0.0855 
     19 C          26.2735  -43.6859  -60.4361 C.2       10 UNK         0.5543 
     20 N          25.6231  -44.8270  -60.6325 N.am      10 UNK        -0.7343 
     21 O          26.2885  -42.8390  -61.3260 O.2       10 UNK        -0.5027 
     22 N          26.8641  -44.4766  -58.0915 N.am      10 UNK        -0.4495 
     23 C          25.7991  -44.6759  -57.3060 C.2       10 UNK         0.4903 
     24 O          24.8310  -43.9158  -57.2545 O.2       10 UNK        -0.4860 
     25 CA         25.8294  -45.9585  -56.4476 C.3       9 UNK         0.0227 
     26 CB         24.4319  -46.3834  -55.9510 C.3       9 UNK        -0.1964 
     27 N          26.5074  -47.0816  -57.1131 N.am      9 UNK        -0.4231 
     28 C          26.1855  -47.6324  -58.2947 C.2       9 UNK         0.5014 
     29 O          25.2352  -47.2676  -58.9874 O.2       9 UNK        -0.5270 
     30 CA         27.0986  -48.7462  -58.8193 C.3       8 UNK         0.0284 
     31 CB         28.3182  -48.1403  -59.5366 C.3       8 UNK        -0.1977 
     32 N          27.5543  -49.6298  -57.7432 N.am      8 UNK        -0.4342 
     33 C          27.2048  -50.9163  -57.6212 C.2       8 UNK         0.5039 
     34 O          26.4332  -51.4968  -58.3866 O.2       8 UNK        -0.5547 
     35 CA         27.8391  -51.7082  -56.4679 C.3       7 UNK         0.0281 
     36 CB         29.2461  -52.1914  -56.8575 C.3       7 UNK        -0.1963 
     37 N          27.9109  -50.9703  -55.2059 N.am      7 UNK        -0.4444 
     38 C          26.8586  -50.7005  -54.4208 C.2       7 UNK         0.5104 
     39 O          25.6920  -50.9503  -54.7245 O.2       7 UNK        -0.5100 
     40 CA         27.1621  -50.0732  -53.0513 C.3       6 UNK         0.0396 
     41 CB         27.7152  -51.1305  -52.0814 C.3       6 UNK        -0.1801 
     42 N          28.1201  -48.9753  -53.1707 N.am      6 UNK        -0.4747 
     43 C          27.7783  -47.6858  -53.3041 C.2       6 UNK         0.5012 
     44 O          26.6160  -47.2832  -53.2607 O.2       6 UNK        -0.5003 
     45 CA         28.9184  -46.6730  -53.5572 C.3       5 UNK         0.0782 
     46 C46        29.3035  -45.9043  -52.2661 C.3       11 UNK        -0.0868 
     47 S47        28.3091  -44.3875  -52.0691 S.3       11 UNK        -0.2515 
     48 C48        29.5859  -43.0794  -52.1119 C.3       11 UNK         0.0199 
     49 N          30.0843  -47.2686  -54.2213 N.am      5 UNK        -0.4607 
     50 C          30.0504  -47.7649  -55.4657 C.2       4 UNK         0.5031 
     51 O          29.0410  -47.7596  -56.1703 O.2       4 UNK        -0.5119 
     52 CA         31.3233  -48.4212  -56.0153 C.3       4 UNK         0.0263 
     53 CB         32.1910  -47.3743  -56.7285 C.3       4 UNK        -0.1967 
     54 N          32.1165  -49.1457  -55.0168 N.am      4 UNK        -0.4237 
     55 C          31.6728  -50.1694  -54.2698 C.2       3 UNK         0.4908 
     56 O          30.5012  -50.5463  -54.2522 O.2       3 UNK        -0.5102 
     57 CA         32.7003  -50.8887  -53.3877 C.3       3 UNK         0.0241 
     58 CB         33.6316  -51.7670  -54.2396 C.3       3 UNK        -0.1971 
     59 N          33.4881  -49.9215  -52.6281 N.am      3 UNK        -0.4139 
     60 C          33.2024  -49.5271  -51.3795 C.2       2 UNK         0.5016 
     61 O          32.3128  -50.0240  -50.6877 O.2       2 UNK        -0.5319 
     62 CA         34.0373  -48.3687  -50.8000 C.3       2 UNK         0.0286 
     63 CB         35.2012  -48.9138  -49.9568 C.3       2 UNK        -0.1963 
     64 N          34.5661  -47.4479  -51.8122 N.am      2 UNK        -0.4790 
     65 C          33.8139  -46.7111  -52.6434 C.2       1 UNK         0.5024 
     66 O          32.5833  -46.7199  -52.6382 O.2       1 UNK        -0.4888 
     67 H67        37.4718  -49.1037  -54.8722 H         1 UNK         0.0892 
     68 H68        37.0412  -48.4143  -56.4393 H         1 UNK         0.0892 
     69 H69        37.9136  -47.4380  -55.2556 H         1 UNK         0.0892 
     70 H70        36.5830  -45.9548  -54.2545 H         1 UNK         0.3107 
     71 H71        33.8542  -45.7370  -54.5221 H         1 UNK         0.0773 
     72 H72        34.0629  -44.0632  -52.5563 H         1 UNK         0.0680 
     73 H73        35.7408  -44.5120  -52.4568 H         1 UNK         0.0680 
     74 H74        34.1817  -41.2487  -55.0430 H         1 UNK         0.0650 
     75 H75        34.1722  -41.5305  -53.3227 H         1 UNK         0.0650 
     76 H76        32.1761  -42.3351  -52.3117 H         1 UNK         0.1397 
     77 H77        28.9039  -43.6772  -54.7371 H         1 UNK         0.1363 
     78 H78        32.7042  -42.8485  -56.5334 H         1 UNK         0.1355 
     79 H79        29.5148  -44.5659  -57.0196 H         1 UNK         0.0707 
     80 H80        30.9668  -43.9996  -57.8146 H         1 UNK         0.0707 
     81 H81        28.5989  -42.3100  -60.1155 H         1 UNK         0.1034 
     82 H82        29.0686  -43.9163  -59.6340 H         1 UNK         0.1034 
     83 H83        26.5152  -42.5153  -58.6864 H         1 UNK         0.0482 
     84 H84        25.1566  -44.9746  -61.5131 H         1 UNK         0.3460 
     85 H85        25.5610  -45.5375  -59.9115 H         1 UNK         0.3460 
     86 H86        27.5967  -45.1684  -58.0805 H         1 UNK         0.2989 
     87 H87        26.4295  -45.7155  -55.5706 H         1 UNK         0.0559 
     88 H88        23.7534  -46.5926  -56.7786 H         1 UNK         0.0848 
     89 H89        23.9763  -45.5993  -55.3453 H         1 UNK         0.0848 
     90 H90        24.4902  -47.2767  -55.3288 H         1 UNK         0.0848 
     91 H91        27.3633  -47.4027  -56.6631 H         1 UNK         0.3144 
     92 H92        26.5256  -49.3083  -59.5597 H         1 UNK         0.0727 
     93 H93        28.9454  -47.5575  -58.8615 H         1 UNK         0.0790 
     94 H94        28.0059  -47.4782  -60.3457 H         1 UNK         0.0790 
     95 H95        28.9402  -48.9187  -59.9787 H         1 UNK         0.0790 
     96 H96        28.1735  -49.2176  -57.0517 H         1 UNK         0.3215 
     97 H97        27.2187  -52.5915  -56.2999 H         1 UNK         0.0863 
     98 H98        29.6758  -52.8264  -56.0824 H         1 UNK         0.0808 
     99 H99        29.9298  -51.3584  -57.0224 H         1 UNK         0.0808 
    100 H100       29.2173  -52.7772  -57.7773 H         1 UNK         0.0808 
    101 H101       28.8453  -50.7609  -54.8558 H         1 UNK         0.3118 
    102 H102       26.2220  -49.7047  -52.6348 H         1 UNK         0.0546 
    103 H103       27.0178  -51.9622  -51.9727 H         1 UNK         0.0828 
    104 H104       27.8742  -50.7101  -51.0884 H         1 UNK         0.0828 
    105 H105       28.6646  -51.5440  -52.4238 H         1 UNK         0.0828 
    106 H106       29.0949  -49.2330  -53.2713 H         1 UNK         0.3005 
    107 H107       28.5171  -45.9561  -54.2753 H         1 UNK         0.1257 
    108 H108       30.3511  -45.6087  -52.2950 H         1 UNK         0.0775 
    109 H109       29.2046  -46.5249  -51.3733 H         1 UNK         0.0775 
    110 H110       29.0930  -42.1121  -52.0068 H         1 UNK         0.0840 
    111 H111       30.2171  -43.1988  -51.2297 H         1 UNK         0.0840 
    112 H112       30.9561  -47.2772  -53.7003 H         1 UNK         0.2987 
    113 H113       31.0108  -49.1558  -56.7596 H         1 UNK         0.0785 
    114 H114       32.4733  -46.5629  -56.0600 H         1 UNK         0.0798 
    115 H115       31.6505  -46.9276  -57.5642 H         1 UNK         0.0798 
    116 H116       33.1032  -47.8153  -57.1307 H         1 UNK         0.0798 
    117 H117       33.1061  -48.9038  -54.9666 H         1 UNK         0.3079 
    118 H118       32.1546  -51.5454  -52.7065 H         1 UNK         0.0794 
    119 H119       34.2186  -51.1786  -54.9459 H         1 UNK         0.0786 
    120 H120       33.0596  -52.4947  -54.8170 H         1 UNK         0.0786 
    121 H121       34.3272  -52.3256  -53.6131 H         1 UNK         0.0786 
    122 H122       34.2030  -49.4198  -53.1438 H         1 UNK         0.3032 
    123 H123       33.3764  -47.7954  -50.1457 H         1 UNK         0.1094 
    124 H124       35.7445  -48.1091  -49.4611 H         1 UNK         0.0794 
    125 H125       34.8371  -49.5840  -49.1765 H         1 UNK         0.0794 
    126 H126       35.9112  -49.4767  -50.5640 H         1 UNK         0.0794 
    127 H127       35.5708  -47.3911  -51.8992 H         1 UNK         0.3016 
@<TRIPOS>BOND
     1    1    2 1    
     2    1   67 1    
     3    1   68 1    
     4    1   69 1    
     5    2    3 2    
     6    2    4 am   BACKBONE|DICT|INTERRES
     7    4    5 1    
     8    4   70 1    
     9    5    6 1    
    10    5   65 1    
    11    5   71 1    
    12    6    7 1    
    13    6   72 1    
    14    6   73 1    
    15    7    8 1    
    16    8    9 1    
    17    8   74 1    
    18    8   75 1    
    19    9   10 ar   
    20    9   14 ar   
    21   10   11 ar   
    22   10   76 1    
    23   11   12 ar   
    24   11   48 1    
    25   12   13 ar   
    26   12   77 1    
    27   13   14 ar   
    28   13   15 1    
    29   14   78 1    
    30   15   16 1    
    31   15   79 1    
    32   15   80 1    
    33   16   17 1    
    34   17   18 1    
    35   17   81 1    
    36   17   82 1    
    37   18   19 1    
    38   18   22 1    
    39   18   83 1    
    40   19   20 am   BACKBONE|DICT|INTERRES
    41   19   21 2    
    42   20   84 1    
    43   20   85 1    
    44   22   23 am   BACKBONE|DICT|INTERRES
    45   22   86 1    
    46   23   24 2    
    47   23   25 1    
    48   25   26 1    
    49   25   27 1    
    50   25   87 1    
    51   26   88 1    
    52   26   89 1    
    53   26   90 1    
    54   27   28 am   BACKBONE|DICT|INTERRES
    55   27   91 1    
    56   28   29 2    
    57   28   30 1    
    58   30   31 1    
    59   30   32 1    
    60   30   92 1    
    61   31   93 1    
    62   31   94 1    
    63   31   95 1    
    64   32   33 am   BACKBONE|DICT|INTERRES
    65   32   96 1    
    66   33   34 2    
    67   33   35 1    
    68   35   36 1    
    69   35   37 1    
    70   35   97 1    
    71   36   98 1    
    72   36   99 1    
    73   36  100 1    
    74   37   38 am   BACKBONE|DICT|INTERRES
    75   37  101 1    
    76   38   39 2    
    77   38   40 1    
    78   40   41 1    
    79   40   42 1    
    80   40  102 1    
    81   41  103 1    
    82   41  104 1    
    83   41  105 1    
    84   42   43 am   BACKBONE|DICT|INTERRES
    85   42  106 1    
    86   43   44 2    
    87   43   45 1    
    88   45   46 1    
    89   45   49 1    
    90   45  107 1    
    91   46   47 1    
    92   46  108 1    
    93   46  109 1    
    94   47   48 1    
    95   48  110 1    
    96   48  111 1    
    97   49   50 am   BACKBONE|DICT|INTERRES
    98   49  112 1    
    99   50   51 2    
   100   50   52 1    
   101   52   53 1    
   102   52   54 1    
   103   52  113 1    
   104   53  114 1    
   105   53  115 1    
   106   53  116 1    
   107   54   55 am   BACKBONE|DICT|INTERRES
   108   54  117 1    
   109   55   56 2    
   110   55   57 1    
   111   57   58 1    
   112   57   59 1    
   113   57  118 1    
   114   58  119 1    
   115   58  120 1    
   116   58  121 1    
   117   59   60 am   BACKBONE|DICT|INTERRES
   118   59  122 1    
   119   60   61 2    
   120   60   62 1    
   121   62   63 1    
   122   62   64 1    
   123   62  123 1    
   124   63  124 1    
   125   63  125 1    
   126   63  126 1    
   127   64   65 am   BACKBONE|DICT|INTERRES
   128   64  127 1    
   129   65   66 2    
@<TRIPOS>SUBSTRUCTURE
     1 UNK         1 GROUP             0       ****    0 ROOT    
