@<TRIPOS>MOLECULE
3R134
127   129    1
SMALL
USER_CHARGES


@<TRIPOS>ATOM
      1 CA         34.0555  -47.1033  -51.0806 C.3       0 UNK        -0.1968 
      2 C          34.5329  -46.6479  -52.4514 C.2       0 UNK         0.4852 
      3 O          35.6947  -46.2658  -52.5973 O.2       0 UNK        -0.5359 
      4 N          33.6450  -46.6848  -53.4536 N.am      1 UNK        -0.4300 
      5 CA         33.9560  -46.3808  -54.8536 C.3       1 UNK         0.0863 
      6 C6         32.6808  -45.9880  -55.6411 C.3       11 UNK        -0.0953 
      7 S7         32.9974  -44.6896  -56.8830 S.3       11 UNK        -0.2369 
      8 C8         32.9148  -43.1586  -55.8925 C.3       11 UNK         0.0226 
      9 C9         31.6498  -43.0532  -55.0496 C.ar      11 UNK        -0.0699 
     10 C10        31.7371  -43.0934  -53.6547 C.ar      11 UNK        -0.0804 
     11 C11        30.5844  -43.0150  -52.8709 C.ar      11 UNK        -0.0871 
     12 C12        29.3396  -42.8862  -53.4938 C.ar      11 UNK        -0.1008 
     13 C13        29.2286  -42.8532  -54.8871 C.ar      11 UNK        -0.0735 
     14 C14        30.3963  -42.9332  -55.6596 C.ar      11 UNK        -0.0945 
     15 C15        27.8251  -42.7637  -55.4920 C.3       11 UNK         0.0169 
     16 S16        27.7466  -42.2366  -57.2382 S.3       11 UNK        -0.2669 
     17 C17        25.9498  -41.9567  -57.4472 C.3       11 UNK        -0.0850 
     18 CA         25.2749  -42.8611  -58.5123 C.3       10 UNK         0.0855 
     19 C          25.7318  -42.5112  -59.9614 C.2       10 UNK         0.5543 
     20 N          26.3575  -43.4147  -60.7074 N.am      10 UNK        -0.7343 
     21 O          25.4964  -41.3967  -60.4222 O.2       10 UNK        -0.5027 
     22 N          25.3628  -44.2860  -58.1579 N.am      10 UNK        -0.4495 
     23 C          24.5527  -45.2407  -58.6369 C.2       10 UNK         0.4903 
     24 O          23.5521  -45.0018  -59.3151 O.2       10 UNK        -0.4860 
     25 CA         24.9183  -46.7066  -58.3105 C.3       9 UNK         0.0227 
     26 CB         24.4229  -47.6883  -59.3929 C.3       9 UNK        -0.1964 
     27 N          26.3450  -46.9338  -58.0391 N.am      9 UNK        -0.4231 
     28 C          27.3848  -46.6356  -58.8362 C.2       9 UNK         0.5014 
     29 O          27.2720  -46.1050  -59.9421 O.2       9 UNK        -0.5270 
     30 CA         28.7938  -46.9269  -58.2950 C.3       8 UNK         0.0284 
     31 CB         29.4041  -45.6384  -57.7305 C.3       8 UNK        -0.1977 
     32 N          28.8144  -47.9600  -57.2571 N.am      8 UNK        -0.4342 
     33 C          28.7018  -49.2739  -57.5042 C.2       8 UNK         0.5039 
     34 O          28.6462  -49.7519  -58.6378 O.2       8 UNK        -0.5547 
     35 CA         28.6196  -50.2214  -56.2917 C.3       7 UNK         0.0281 
     36 CB         30.0015  -50.8250  -55.9894 C.3       7 UNK        -0.1963 
     37 N          28.0962  -49.5908  -55.0769 N.am      7 UNK        -0.4444 
     38 C          26.8767  -49.0496  -54.9388 C.2       7 UNK         0.5104 
     39 O          26.0277  -49.0349  -55.8293 O.2       7 UNK        -0.5100 
     40 CA         26.5665  -48.3616  -53.5969 C.3       6 UNK         0.0396 
     41 CB         25.7612  -49.3044  -52.6894 C.3       6 UNK        -0.1801 
     42 N          27.7536  -47.8926  -52.8725 N.am      6 UNK        -0.4747 
     43 C          28.6351  -46.9861  -53.3252 C.2       6 UNK         0.5012 
     44 O          28.5631  -46.4615  -54.4367 O.2       6 UNK        -0.5003 
     45 CA         29.8302  -46.6738  -52.4039 C.3       5 UNK         0.0782 
     46 C46        29.4535  -45.6196  -51.3354 C.3       11 UNK        -0.0868 
     47 S47        30.9410  -44.7597  -50.7256 S.3       11 UNK        -0.2515 
     48 C48        30.6820  -43.0659  -51.3514 C.3       11 UNK         0.0199 
     49 N          30.3421  -47.9063  -51.7880 N.am      5 UNK        -0.4607 
     50 C          31.0187  -48.8561  -52.4419 C.2       4 UNK         0.5031 
     51 O          31.4730  -48.7073  -53.5809 O.2       4 UNK        -0.5119 
     52 CA         31.2004  -50.1922  -51.7098 C.3       4 UNK         0.0263 
     53 CB         29.8422  -50.8675  -51.4294 C.3       4 UNK        -0.1967 
     54 N          32.0174  -51.0623  -52.5463 N.am      4 UNK        -0.4237 
     55 C          32.7341  -52.1189  -52.1456 C.2       3 UNK         0.4908 
     56 O          32.7607  -52.5294  -50.9849 O.2       3 UNK        -0.5102 
     57 CA         33.5663  -52.8447  -53.2229 C.3       3 UNK         0.0241 
     58 CB         32.8316  -54.1065  -53.7052 C.3       3 UNK        -0.1971 
     59 N          33.8825  -52.0011  -54.3821 N.am      3 UNK        -0.4139 
     60 C          34.7049  -50.9434  -54.3486 C.2       2 UNK         0.5016 
     61 O          35.3550  -50.6176  -53.3540 O.2       2 UNK        -0.5319 
     62 CA         34.7728  -50.0570  -55.5986 C.3       2 UNK         0.0286 
     63 CB         34.0493  -50.6210  -56.8397 C.3       2 UNK        -0.1963 
     64 N          34.1804  -48.7774  -55.2273 N.am      2 UNK        -0.4790 
     65 C          34.6803  -47.5700  -55.5132 C.2       1 UNK         0.5024 
     66 O          35.6658  -47.3792  -56.2270 O.2       1 UNK        -0.4888 
     67 H67        34.4947  -46.4811  -50.3013 H         1 UNK         0.0892 
     68 H68        32.9731  -47.0349  -50.9862 H         1 UNK         0.0892 
     69 H69        34.3543  -48.1362  -50.9035 H         1 UNK         0.0892 
     70 H70        32.7247  -47.0726  -53.2901 H         1 UNK         0.3107 
     71 H71        34.6463  -45.5342  -54.8555 H         1 UNK         0.0773 
     72 H72        32.2352  -46.8479  -56.1459 H         1 UNK         0.0680 
     73 H73        31.8981  -45.6411  -54.9685 H         1 UNK         0.0680 
     74 H74        32.9667  -42.3023  -56.5660 H         1 UNK         0.0650 
     75 H75        33.8036  -43.1043  -55.2621 H         1 UNK         0.0650 
     76 H76        32.7013  -43.1982  -53.1758 H         1 UNK         0.1397 
     77 H77        28.4447  -42.8246  -52.8895 H         1 UNK         0.1363 
     78 H78        30.3428  -42.9236  -56.7386 H         1 UNK         0.1355 
     79 H79        27.3428  -43.7376  -55.3961 H         1 UNK         0.0707 
     80 H80        27.2356  -42.0619  -54.8998 H         1 UNK         0.0707 
     81 H81        25.4434  -42.0957  -56.4910 H         1 UNK         0.1034 
     82 H82        25.7981  -40.9046  -57.6960 H         1 UNK         0.1034 
     83 H83        24.2137  -42.6053  -58.4895 H         1 UNK         0.0482 
     84 H84        26.6380  -43.1691  -61.6429 H         1 UNK         0.3460 
     85 H85        26.5732  -44.3387  -60.3449 H         1 UNK         0.3460 
     86 H86        26.1780  -44.5599  -57.6310 H         1 UNK         0.2989 
     87 H87        24.3957  -46.9468  -57.3836 H         1 UNK         0.0559 
     88 H88        23.3398  -47.6348  -59.5093 H         1 UNK         0.0848 
     89 H89        24.6672  -48.7186  -59.1339 H         1 UNK         0.0848 
     90 H90        24.8665  -47.4726  -60.3656 H         1 UNK         0.0848 
     91 H91        26.5403  -47.4098  -57.1662 H         1 UNK         0.3144 
     92 H92        29.4100  -47.2585  -59.1336 H         1 UNK         0.0727 
     93 H93        28.8390  -45.2613  -56.8781 H         1 UNK         0.0790 
     94 H94        29.4297  -44.8485  -58.4826 H         1 UNK         0.0790 
     95 H95        30.4262  -45.8060  -57.4030 H         1 UNK         0.0790 
     96 H96        28.8529  -47.6399  -56.2957 H         1 UNK         0.3215 
     97 H97        27.9390  -51.0327  -56.5586 H         1 UNK         0.0863 
     98 H98        29.9588  -51.5304  -55.1593 H         1 UNK         0.0808 
     99 H99        30.7303  -50.0525  -55.7431 H         1 UNK         0.0808 
    100 H100       30.3844  -51.3677  -56.8549 H         1 UNK         0.0808 
    101 H101       28.7283  -49.5241  -54.2941 H         1 UNK         0.3118 
    102 H102       25.9496  -47.4877  -53.8165 H         1 UNK         0.0546 
    103 H103       26.3371  -50.1875  -52.4096 H         1 UNK         0.0828 
    104 H104       24.8570  -49.6517  -53.1917 H         1 UNK         0.0828 
    105 H105       25.4462  -48.8034  -51.7739 H         1 UNK         0.0828 
    106 H106       27.8933  -48.2746  -51.9488 H         1 UNK         0.3005 
    107 H107       30.6014  -46.2506  -53.0506 H         1 UNK         0.1257 
    108 H108       28.9443  -46.0838  -50.4891 H         1 UNK         0.0775 
    109 H109       28.7487  -44.8843  -51.7241 H         1 UNK         0.0775 
    110 H110       29.7843  -42.6476  -50.8931 H         1 UNK         0.0840 
    111 H111       31.5099  -42.4375  -51.0196 H         1 UNK         0.0840 
    112 H112       30.0583  -48.0779  -50.8340 H         1 UNK         0.2987 
    113 H113       31.7243  -49.9995  -50.7713 H         1 UNK         0.0785 
    114 H114       29.2159  -50.2574  -50.7781 H         1 UNK         0.0798 
    115 H115       29.9735  -51.8270  -50.9288 H         1 UNK         0.0798 
    116 H116       29.2838  -51.0498  -52.3485 H         1 UNK         0.0798 
    117 H117       32.0843  -50.7561  -53.5074 H         1 UNK         0.3079 
    118 H118       34.5064  -53.1502  -52.7584 H         1 UNK         0.0794 
    119 H119       33.4374  -54.6732  -54.4126 H         1 UNK         0.0786 
    120 H120       31.8852  -53.8635  -54.1903 H         1 UNK         0.0786 
    121 H121       32.6076  -54.7709  -52.8692 H         1 UNK         0.0786 
    122 H122       33.3987  -52.2097  -55.2436 H         1 UNK         0.3032 
    123 H123       35.8318  -49.9315  -55.8363 H         1 UNK         0.1094 
    124 H124       32.9763  -50.7294  -56.6816 H         1 UNK         0.0794 
    125 H125       34.1841  -49.9604  -57.6966 H         1 UNK         0.0794 
    126 H126       34.4512  -51.5941  -57.1253 H         1 UNK         0.0794 
    127 H127       33.3782  -48.8217  -54.6098 H         1 UNK         0.3016 
@<TRIPOS>BOND
     1    1    2 1    
     2    1   67 1    
     3    1   68 1    
     4    1   69 1    
     5    2    3 2    
     6    2    4 am   BACKBONE|DICT|INTERRES
     7    4    5 1    
     8    4   70 1    
     9    5    6 1    
    10    5   65 1    
    11    5   71 1    
    12    6    7 1    
    13    6   72 1    
    14    6   73 1    
    15    7    8 1    
    16    8    9 1    
    17    8   74 1    
    18    8   75 1    
    19    9   10 ar   
    20    9   14 ar   
    21   10   11 ar   
    22   10   76 1    
    23   11   12 ar   
    24   11   48 1    
    25   12   13 ar   
    26   12   77 1    
    27   13   14 ar   
    28   13   15 1    
    29   14   78 1    
    30   15   16 1    
    31   15   79 1    
    32   15   80 1    
    33   16   17 1    
    34   17   18 1    
    35   17   81 1    
    36   17   82 1    
    37   18   19 1    
    38   18   22 1    
    39   18   83 1    
    40   19   20 am   BACKBONE|DICT|INTERRES
    41   19   21 2    
    42   20   84 1    
    43   20   85 1    
    44   22   23 am   BACKBONE|DICT|INTERRES
    45   22   86 1    
    46   23   24 2    
    47   23   25 1    
    48   25   26 1    
    49   25   27 1    
    50   25   87 1    
    51   26   88 1    
    52   26   89 1    
    53   26   90 1    
    54   27   28 am   BACKBONE|DICT|INTERRES
    55   27   91 1    
    56   28   29 2    
    57   28   30 1    
    58   30   31 1    
    59   30   32 1    
    60   30   92 1    
    61   31   93 1    
    62   31   94 1    
    63   31   95 1    
    64   32   33 am   BACKBONE|DICT|INTERRES
    65   32   96 1    
    66   33   34 2    
    67   33   35 1    
    68   35   36 1    
    69   35   37 1    
    70   35   97 1    
    71   36   98 1    
    72   36   99 1    
    73   36  100 1    
    74   37   38 am   BACKBONE|DICT|INTERRES
    75   37  101 1    
    76   38   39 2    
    77   38   40 1    
    78   40   41 1    
    79   40   42 1    
    80   40  102 1    
    81   41  103 1    
    82   41  104 1    
    83   41  105 1    
    84   42   43 am   BACKBONE|DICT|INTERRES
    85   42  106 1    
    86   43   44 2    
    87   43   45 1    
    88   45   46 1    
    89   45   49 1    
    90   45  107 1    
    91   46   47 1    
    92   46  108 1    
    93   46  109 1    
    94   47   48 1    
    95   48  110 1    
    96   48  111 1    
    97   49   50 am   BACKBONE|DICT|INTERRES
    98   49  112 1    
    99   50   51 2    
   100   50   52 1    
   101   52   53 1    
   102   52   54 1    
   103   52  113 1    
   104   53  114 1    
   105   53  115 1    
   106   53  116 1    
   107   54   55 am   BACKBONE|DICT|INTERRES
   108   54  117 1    
   109   55   56 2    
   110   55   57 1    
   111   57   58 1    
   112   57   59 1    
   113   57  118 1    
   114   58  119 1    
   115   58  120 1    
   116   58  121 1    
   117   59   60 am   BACKBONE|DICT|INTERRES
   118   59  122 1    
   119   60   61 2    
   120   60   62 1    
   121   62   63 1    
   122   62   64 1    
   123   62  123 1    
   124   63  124 1    
   125   63  125 1    
   126   63  126 1    
   127   64   65 am   BACKBONE|DICT|INTERRES
   128   64  127 1    
   129   65   66 2    
@<TRIPOS>SUBSTRUCTURE
     1 UNK         1 GROUP             0       ****    0 ROOT    
