@<TRIPOS>MOLECULE
3R134
127   129    1
SMALL
USER_CHARGES


@<TRIPOS>ATOM
      1 CA         36.5099  -45.7648  -56.1777 C.3       0 UNK        -0.1968 
      2 C          36.7229  -45.4930  -54.6913 C.2       0 UNK         0.4852 
      3 O          37.8597  -45.2707  -54.2772 O.2       0 UNK        -0.5359 
      4 N          35.6807  -45.5008  -53.8495 N.am      1 UNK        -0.4300 
      5 CA         34.2736  -45.7746  -54.1701 C.3       1 UNK         0.0863 
      6 C6         33.3746  -44.5295  -53.9614 C.3       11 UNK        -0.0953 
      7 S7         33.7165  -43.1560  -55.1066 S.3       11 UNK        -0.2369 
      8 C8         32.9006  -41.7738  -54.2374 C.3       11 UNK         0.0226 
      9 C9         31.4318  -42.0607  -53.9472 C.ar      11 UNK        -0.0699 
     10 C10        31.0493  -42.5664  -52.7003 C.ar      11 UNK        -0.0804 
     11 C11        29.7132  -42.8810  -52.4371 C.ar      11 UNK        -0.0871 
     12 C12        28.7493  -42.6514  -53.4222 C.ar      11 UNK        -0.1008 
     13 C13        29.1167  -42.1431  -54.6707 C.ar      11 UNK        -0.0735 
     14 C14        30.4590  -41.8431  -54.9272 C.ar      11 UNK        -0.0945 
     15 C15        28.0577  -41.9491  -55.7438 C.3       11 UNK         0.0169 
     16 S16        27.6903  -43.5211  -56.5843 S.3       11 UNK        -0.2669 
     17 C17        29.2003  -43.7507  -57.5847 C.3       11 UNK        -0.0850 
     18 CA         28.8786  -44.2864  -59.0012 C.3       10 UNK         0.0855 
     19 C          30.1434  -44.2491  -59.9051 C.2       10 UNK         0.5543 
     20 N          30.4294  -43.1077  -60.5163 N.am      10 UNK        -0.7343 
     21 O          30.8842  -45.2224  -60.0255 O.2       10 UNK        -0.5027 
     22 N          28.2486  -45.6118  -58.9250 N.am      10 UNK        -0.4495 
     23 C          27.7359  -46.2913  -59.9585 C.2       10 UNK         0.4903 
     24 O          27.6800  -45.8599  -61.1106 O.2       10 UNK        -0.4860 
     25 CA         27.1789  -47.6903  -59.6569 C.3       9 UNK         0.0227 
     26 CB         28.2514  -48.7597  -59.9208 C.3       9 UNK        -0.1964 
     27 N          26.7141  -47.8137  -58.2756 N.am      9 UNK        -0.4231 
     28 C          25.4889  -47.4968  -57.8373 C.2       9 UNK         0.5014 
     29 O          24.5975  -47.0422  -58.5573 O.2       9 UNK        -0.5270 
     30 CA         25.2260  -47.7576  -56.3389 C.3       8 UNK         0.0284 
     31 CB         23.7271  -47.7601  -55.9720 C.3       8 UNK        -0.1977 
     32 N          25.8912  -48.9796  -55.8661 N.am      8 UNK        -0.4342 
     33 C          25.7075  -50.2352  -56.3055 C.2       8 UNK         0.5039 
     34 O          24.8295  -50.5670  -57.1029 O.2       8 UNK        -0.5547 
     35 CA         26.7004  -51.3042  -55.8132 C.3       7 UNK         0.0281 
     36 CB         27.7014  -51.6439  -56.9308 C.3       7 UNK        -0.1963 
     37 N          27.4471  -50.9012  -54.6196 N.am      7 UNK        -0.4444 
     38 C          26.9439  -50.8799  -53.3787 C.2       7 UNK         0.5104 
     39 O          25.8053  -51.2506  -53.0920 O.2       7 UNK        -0.5100 
     40 CA         27.8586  -50.3195  -52.2770 C.3       6 UNK         0.0396 
     41 CB         28.8621  -51.3837  -51.8052 C.3       6 UNK        -0.1801 
     42 N          28.5805  -49.1126  -52.6907 N.am      6 UNK        -0.4747 
     43 C          28.0058  -47.9361  -52.9890 C.2       6 UNK         0.5012 
     44 O          26.7896  -47.7470  -52.9822 O.2       6 UNK        -0.5003 
     45 CA         28.9528  -46.7911  -53.4006 C.3       5 UNK         0.0782 
     46 C46        29.6030  -46.1177  -52.1636 C.3       11 UNK        -0.0868 
     47 S47        28.4259  -45.0637  -51.2450 S.3       11 UNK        -0.2515 
     48 C48        29.3208  -43.4797  -51.0919 C.3       11 UNK         0.0199 
     49 N          29.9610  -47.2689  -54.3487 N.am      5 UNK        -0.4607 
     50 C          29.7064  -47.6444  -55.6087 C.2       4 UNK         0.5031 
     51 O          28.5988  -47.5726  -56.1415 O.2       4 UNK        -0.5119 
     52 CA         30.8798  -48.2166  -56.4162 C.3       4 UNK         0.0263 
     53 CB         31.6970  -47.0784  -57.0434 C.3       4 UNK        -0.1967 
     54 N          31.7629  -49.1004  -55.6492 N.am      4 UNK        -0.4237 
     55 C          31.3928  -50.2669  -55.0995 C.2       3 UNK         0.4908 
     56 O          30.2346  -50.6812  -55.0886 O.2       3 UNK        -0.5102 
     57 CA         32.5014  -51.1196  -54.4631 C.3       3 UNK         0.0241 
     58 CB         33.2466  -51.9245  -55.5403 C.3       3 UNK        -0.1971 
     59 N          33.4547  -50.3037  -53.7091 N.am      3 UNK        -0.4139 
     60 C          33.2565  -49.9040  -52.4461 C.2       2 UNK         0.5016 
     61 O          32.2965  -50.2485  -51.7559 O.2       2 UNK        -0.5319 
     62 CA         34.2837  -48.9094  -51.8735 C.3       2 UNK         0.0286 
     63 CB         35.5644  -49.6383  -51.4348 C.3       2 UNK        -0.1963 
     64 N          34.6298  -47.8034  -52.7806 N.am      2 UNK        -0.4790 
     65 C          33.7427  -46.9654  -53.3427 C.2       1 UNK         0.5024 
     66 O          32.5264  -47.1098  -53.2278 O.2       1 UNK        -0.4888 
     67 H67        36.1568  -46.7829  -56.3388 H         1 UNK         0.0892 
     68 H68        35.7880  -45.0666  -56.6010 H         1 UNK         0.0892 
     69 H69        37.4440  -45.6458  -56.7263 H         1 UNK         0.0892 
     70 H70        35.8585  -45.2994  -52.8750 H         1 UNK         0.3107 
     71 H71        34.1669  -46.0895  -55.2070 H         1 UNK         0.0773 
     72 H72        32.3214  -44.7792  -54.1051 H         1 UNK         0.0680 
     73 H73        33.4720  -44.1702  -52.9357 H         1 UNK         0.0680 
     74 H74        33.4383  -41.5679  -53.3105 H         1 UNK         0.0650 
     75 H75        32.9875  -40.8728  -54.8463 H         1 UNK         0.0650 
     76 H76        31.7998  -42.7384  -51.9412 H         1 UNK         0.1397 
     77 H77        27.7140  -42.8962  -53.2269 H         1 UNK         0.1363 
     78 H78        30.7525  -41.4578  -55.8938 H         1 UNK         0.1355 
     79 H79        28.3689  -41.1977  -56.4711 H         1 UNK         0.0707 
     80 H80        27.1412  -41.5704  -55.2886 H         1 UNK         0.0707 
     81 H81        29.7236  -42.7962  -57.6591 H         1 UNK         0.1034 
     82 H82        29.8751  -44.4231  -57.0518 H         1 UNK         0.1034 
     83 H83        28.1419  -43.6201  -59.4550 H         1 UNK         0.0482 
     84 H84        29.8327  -42.3002  -60.4243 H         1 UNK         0.3460 
     85 H85        31.2524  -43.0573  -61.0962 H         1 UNK         0.3460 
     86 H86        28.2375  -46.0430  -58.0117 H         1 UNK         0.2989 
     87 H87        26.3418  -47.8735  -60.3339 H         1 UNK         0.0559 
     88 H88        29.1271  -48.6208  -59.2862 H         1 UNK         0.0848 
     89 H89        28.5920  -48.7214  -60.9565 H         1 UNK         0.0848 
     90 H90        27.8634  -49.7633  -59.7450 H         1 UNK         0.0848 
     91 H91        27.3999  -48.0847  -57.5766 H         1 UNK         0.3144 
     92 H92        25.6957  -46.9318  -55.8018 H         1 UNK         0.0727 
     93 H93        23.5818  -47.9388  -54.9066 H         1 UNK         0.0790 
     94 H94        23.1761  -48.5251  -56.5198 H         1 UNK         0.0790 
     95 H95        23.2672  -46.7991  -56.2051 H         1 UNK         0.0790 
     96 H96        26.6483  -48.8260  -55.2128 H         1 UNK         0.3215 
     97 H97        26.1270  -52.2037  -55.5786 H         1 UNK         0.0863 
     98 H98        28.3791  -52.4420  -56.6272 H         1 UNK         0.0808 
     99 H99        28.3067  -50.7788  -57.2054 H         1 UNK         0.0808 
    100 H100       27.1857  -51.9811  -57.8311 H         1 UNK         0.0808 
    101 H101       28.4262  -50.6508  -54.7547 H         1 UNK         0.3118 
    102 H102       27.2272  -50.0509  -51.4274 H         1 UNK         0.0546 
    103 H103       29.5450  -51.6806  -52.6019 H         1 UNK         0.0828 
    104 H104       28.3464  -52.2830  -51.4659 H         1 UNK         0.0828 
    105 H105       29.4631  -51.0211  -50.9711 H         1 UNK         0.0828 
    106 H106       29.5859  -49.1879  -52.7602 H         1 UNK         0.3005 
    107 H107       28.3547  -46.0403  -53.9241 H         1 UNK         0.1257 
    108 H108       30.4435  -45.5018  -52.4843 H         1 UNK         0.0775 
    109 H109       30.0296  -46.8576  -51.4836 H         1 UNK         0.0775 
    110 H110       28.6879  -42.7677  -50.5606 H         1 UNK         0.0840 
    111 H111       30.1991  -43.6370  -50.4638 H         1 UNK         0.0840 
    112 H112       30.9131  -47.3352  -53.9934 H         1 UNK         0.2987 
    113 H113       30.4564  -48.8148  -57.2253 H         1 UNK         0.0785 
    114 H114       32.0960  -46.4000  -56.2899 H         1 UNK         0.0798 
    115 H115       31.0724  -46.4853  -57.7105 H         1 UNK         0.0798 
    116 H116       32.5281  -47.4576  -57.6380 H         1 UNK         0.0798 
    117 H117       32.7329  -48.8340  -55.5953 H         1 UNK         0.3079 
    118 H118       32.0240  -51.8315  -53.7858 H         1 UNK         0.0794 
    119 H119       32.5547  -52.5501  -56.1063 H         1 UNK         0.0786 
    120 H120       33.9891  -52.5871  -55.0951 H         1 UNK         0.0786 
    121 H121       33.7591  -51.2778  -56.2536 H         1 UNK         0.0786 
    122 H122       34.2828  -49.9845  -54.1901 H         1 UNK         0.3032 
    123 H123       33.8284  -48.4642  -50.9859 H         1 UNK         0.1094 
    124 H124       36.2430  -48.9664  -50.9089 H         1 UNK         0.0794 
    125 H125       35.3328  -50.4582  -50.7530 H         1 UNK         0.0794 
    126 H126       36.1024  -50.0623  -52.2834 H         1 UNK         0.0794 
    127 H127       35.6137  -47.6315  -52.9329 H         1 UNK         0.3016 
@<TRIPOS>BOND
     1    1    2 1    
     2    1   67 1    
     3    1   68 1    
     4    1   69 1    
     5    2    3 2    
     6    2    4 am   BACKBONE|DICT|INTERRES
     7    4    5 1    
     8    4   70 1    
     9    5    6 1    
    10    5   65 1    
    11    5   71 1    
    12    6    7 1    
    13    6   72 1    
    14    6   73 1    
    15    7    8 1    
    16    8    9 1    
    17    8   74 1    
    18    8   75 1    
    19    9   10 ar   
    20    9   14 ar   
    21   10   11 ar   
    22   10   76 1    
    23   11   12 ar   
    24   11   48 1    
    25   12   13 ar   
    26   12   77 1    
    27   13   14 ar   
    28   13   15 1    
    29   14   78 1    
    30   15   16 1    
    31   15   79 1    
    32   15   80 1    
    33   16   17 1    
    34   17   18 1    
    35   17   81 1    
    36   17   82 1    
    37   18   19 1    
    38   18   22 1    
    39   18   83 1    
    40   19   20 am   BACKBONE|DICT|INTERRES
    41   19   21 2    
    42   20   84 1    
    43   20   85 1    
    44   22   23 am   BACKBONE|DICT|INTERRES
    45   22   86 1    
    46   23   24 2    
    47   23   25 1    
    48   25   26 1    
    49   25   27 1    
    50   25   87 1    
    51   26   88 1    
    52   26   89 1    
    53   26   90 1    
    54   27   28 am   BACKBONE|DICT|INTERRES
    55   27   91 1    
    56   28   29 2    
    57   28   30 1    
    58   30   31 1    
    59   30   32 1    
    60   30   92 1    
    61   31   93 1    
    62   31   94 1    
    63   31   95 1    
    64   32   33 am   BACKBONE|DICT|INTERRES
    65   32   96 1    
    66   33   34 2    
    67   33   35 1    
    68   35   36 1    
    69   35   37 1    
    70   35   97 1    
    71   36   98 1    
    72   36   99 1    
    73   36  100 1    
    74   37   38 am   BACKBONE|DICT|INTERRES
    75   37  101 1    
    76   38   39 2    
    77   38   40 1    
    78   40   41 1    
    79   40   42 1    
    80   40  102 1    
    81   41  103 1    
    82   41  104 1    
    83   41  105 1    
    84   42   43 am   BACKBONE|DICT|INTERRES
    85   42  106 1    
    86   43   44 2    
    87   43   45 1    
    88   45   46 1    
    89   45   49 1    
    90   45  107 1    
    91   46   47 1    
    92   46  108 1    
    93   46  109 1    
    94   47   48 1    
    95   48  110 1    
    96   48  111 1    
    97   49   50 am   BACKBONE|DICT|INTERRES
    98   49  112 1    
    99   50   51 2    
   100   50   52 1    
   101   52   53 1    
   102   52   54 1    
   103   52  113 1    
   104   53  114 1    
   105   53  115 1    
   106   53  116 1    
   107   54   55 am   BACKBONE|DICT|INTERRES
   108   54  117 1    
   109   55   56 2    
   110   55   57 1    
   111   57   58 1    
   112   57   59 1    
   113   57  118 1    
   114   58  119 1    
   115   58  120 1    
   116   58  121 1    
   117   59   60 am   BACKBONE|DICT|INTERRES
   118   59  122 1    
   119   60   61 2    
   120   60   62 1    
   121   62   63 1    
   122   62   64 1    
   123   62  123 1    
   124   63  124 1    
   125   63  125 1    
   126   63  126 1    
   127   64   65 am   BACKBONE|DICT|INTERRES
   128   64  127 1    
   129   65   66 2    
@<TRIPOS>SUBSTRUCTURE
     1 UNK         1 GROUP             0       ****    0 ROOT    
