@<TRIPOS>MOLECULE
3R134
127   129    1
SMALL
USER_CHARGES


@<TRIPOS>ATOM
      1 CA         28.4524  -45.2169  -49.4969 C.3       0 UNK        -0.1968 
      2 C          29.9699  -45.3166  -49.5567 C.2       0 UNK         0.4852 
      3 O          30.6273  -45.2672  -48.5155 O.2       0 UNK        -0.5359 
      4 N          30.5285  -45.4477  -50.7669 N.am      1 UNK        -0.4300 
      5 CA         31.9617  -45.6327  -51.0126 C.3       1 UNK         0.0863 
      6 C6         32.3129  -45.3334  -52.4930 C.3       11 UNK        -0.0953 
      7 S7         34.0536  -44.8420  -52.7238 S.3       11 UNK        -0.2369 
      8 C8         33.8750  -43.3302  -53.7253 C.3       11 UNK         0.0226 
      9 C9         33.2314  -43.6104  -55.0776 C.ar      11 UNK        -0.0699 
     10 C10        33.8897  -44.4137  -56.0131 C.ar      11 UNK        -0.0804 
     11 C11        33.3063  -44.6847  -57.2540 C.ar      11 UNK        -0.0871 
     12 C12        32.0620  -44.1321  -57.5651 C.ar      11 UNK        -0.1008 
     13 C13        31.4003  -43.3145  -56.6444 C.ar      11 UNK        -0.0735 
     14 C14        31.9851  -43.0616  -55.3994 C.ar      11 UNK        -0.0945 
     15 C15        30.0651  -42.6907  -57.0151 C.3       11 UNK         0.0169 
     16 S16        28.6955  -43.8536  -56.7422 S.3       11 UNK        -0.2669 
     17 C17        27.4028  -43.1093  -57.7987 C.3       11 UNK        -0.0850 
     18 CA         25.9988  -43.0676  -57.1402 C.3       10 UNK         0.0855 
     19 C          24.9740  -42.4389  -58.1314 C.2       10 UNK         0.5543 
     20 N          24.0946  -43.2129  -58.7591 N.am      10 UNK        -0.7343 
     21 O          24.9855  -41.2277  -58.3357 O.2       10 UNK        -0.5027 
     22 N          25.6163  -44.3889  -56.6265 N.am      10 UNK        -0.4495 
     23 C          24.5284  -44.6758  -55.9012 C.2       10 UNK         0.4903 
     24 O          23.7647  -43.8238  -55.4449 O.2       10 UNK        -0.4860 
     25 CA         24.2472  -46.1729  -55.6550 C.3       9 UNK         0.0227 
     26 CB         22.7377  -46.4837  -55.5776 C.3       9 UNK        -0.1964 
     27 N          24.9159  -47.0629  -56.6177 N.am      9 UNK        -0.4231 
     28 C          24.7501  -47.1014  -57.9525 C.2       9 UNK         0.5014 
     29 O          23.9617  -46.3737  -58.5592 O.2       9 UNK        -0.5270 
     30 CA         25.6505  -48.0542  -58.7670 C.3       8 UNK         0.0284 
     31 CB         26.5970  -47.2465  -59.6723 C.3       8 UNK        -0.1977 
     32 N          26.4514  -48.9576  -57.9367 N.am      8 UNK        -0.4342 
     33 C          25.9706  -50.0355  -57.2984 C.2       8 UNK         0.5039 
     34 O          24.8191  -50.4488  -57.4380 O.2       8 UNK        -0.5547 
     35 CA         26.9083  -50.7577  -56.3095 C.3       7 UNK         0.0281 
     36 CB         27.4536  -52.0499  -56.9378 C.3       7 UNK        -0.1963 
     37 N          28.0302  -49.9406  -55.8298 N.am      7 UNK        -0.4444 
     38 C          27.9150  -48.7837  -55.1559 C.2       7 UNK         0.5104 
     39 O          26.8331  -48.3027  -54.8197 O.2       7 UNK        -0.5100 
     40 CA         29.2051  -48.0007  -54.8428 C.3       6 UNK         0.0396 
     41 CB         29.6173  -48.2738  -53.3899 C.3       6 UNK        -0.1801 
     42 N          30.3268  -48.3069  -55.7403 N.am      6 UNK        -0.4747 
     43 C          30.3038  -48.1713  -57.0785 C.2       6 UNK         0.5012 
     44 O          29.3641  -47.6519  -57.6829 O.2       6 UNK        -0.5003 
     45 CA         31.4394  -48.8233  -57.9030 C.3       5 UNK         0.0782 
     46 C46        32.3114  -47.7902  -58.6738 C.3       11 UNK        -0.0868 
     47 S47        33.8698  -47.3220  -57.8397 S.3       11 UNK        -0.2515 
     48 C48        34.0350  -45.5615  -58.2577 C.3       11 UNK         0.0199 
     49 N          32.2420  -49.7979  -57.1536 N.am      5 UNK        -0.4607 
     50 C          31.7965  -50.9257  -56.5870 C.2       4 UNK         0.5031 
     51 O          30.6386  -51.3286  -56.6966 O.2       4 UNK        -0.5119 
     52 CA         32.7908  -51.7049  -55.7060 C.3       4 UNK         0.0263 
     53 CB         33.4128  -52.8629  -56.5024 C.3       4 UNK        -0.1967 
     54 N          33.8640  -50.8898  -55.1153 N.am      4 UNK        -0.4237 
     55 C          33.6846  -49.8475  -54.2899 C.2       3 UNK         0.4908 
     56 O          32.5787  -49.3916  -53.9927 O.2       3 UNK        -0.5102 
     57 CA         34.9580  -49.1740  -53.7519 C.3       3 UNK         0.0241 
     58 CB         35.4271  -48.0644  -54.7050 C.3       3 UNK        -0.1971 
     59 N          34.7344  -48.5875  -52.4316 N.am      3 UNK        -0.4139 
     60 C          34.6549  -49.2777  -51.2857 C.2       2 UNK         0.5016 
     61 O          34.8256  -50.4953  -51.2065 O.2       2 UNK        -0.5319 
     62 CA         34.3554  -48.4755  -50.0043 C.3       2 UNK         0.0286 
     63 CB         35.6484  -48.2297  -49.2094 C.3       2 UNK        -0.1963 
     64 N          33.7084  -47.1874  -50.2748 N.am      2 UNK        -0.4790 
     65 C          32.4170  -47.0506  -50.6025 C.2       1 UNK         0.5024 
     66 O          31.6182  -47.9901  -50.6234 O.2       1 UNK        -0.4888 
     67 H67        28.0001  -45.2658  -50.4873 H         1 UNK         0.0892 
     68 H68        28.0469  -46.0328  -48.8991 H         1 UNK         0.0892 
     69 H69        28.1559  -44.2755  -49.0350 H         1 UNK         0.0892 
     70 H70        29.9339  -45.5069  -51.5801 H         1 UNK         0.3107 
     71 H71        32.4854  -44.9126  -50.3793 H         1 UNK         0.0773 
     72 H72        32.1090  -46.1814  -53.1477 H         1 UNK         0.0680 
     73 H73        31.6812  -44.5227  -52.8586 H         1 UNK         0.0680 
     74 H74        34.8621  -42.8941  -53.8837 H         1 UNK         0.0650 
     75 H75        33.2999  -42.5940  -53.1616 H         1 UNK         0.0650 
     76 H76        34.8532  -44.8398  -55.7683 H         1 UNK         0.1397 
     77 H77        31.6066  -44.3333  -58.5253 H         1 UNK         0.1363 
     78 H78        31.4714  -42.4335  -54.6845 H         1 UNK         0.1355 
     79 H79        29.8885  -41.7814  -56.4385 H         1 UNK         0.0707 
     80 H80        30.0913  -42.3919  -58.0644 H         1 UNK         0.0707 
     81 H81        27.7047  -42.0977  -58.0778 H         1 UNK         0.1034 
     82 H82        27.3698  -43.6787  -58.7300 H         1 UNK         0.1034 
     83 H83        26.0513  -42.3988  -56.2791 H         1 UNK         0.0482 
     84 H84        24.0781  -44.2134  -58.6016 H         1 UNK         0.3460 
     85 H85        23.4369  -42.7947  -59.3975 H         1 UNK         0.3460 
     86 H86        26.2008  -45.1547  -56.9242 H         1 UNK         0.2989 
     87 H87        24.6821  -46.4040  -54.6817 H         1 UNK         0.0559 
     88 H88        22.2193  -46.2079  -56.4964 H         1 UNK         0.0848 
     89 H89        22.2653  -45.9345  -54.7622 H         1 UNK         0.0848 
     90 H90        22.5598  -47.5438  -55.3970 H         1 UNK         0.0848 
     91 H91        25.6102  -47.6773  -56.2002 H         1 UNK         0.3144 
     92 H92        24.9970  -48.6543  -59.4036 H         1 UNK         0.0727 
     93 H93        27.2561  -46.5984  -59.0929 H         1 UNK         0.0790 
     94 H94        26.0358  -46.6096  -60.3576 H         1 UNK         0.0790 
     95 H95        27.2215  -47.9014  -60.2801 H         1 UNK         0.0790 
     96 H96        27.4138  -48.6830  -57.7722 H         1 UNK         0.3215 
     97 H97        26.3075  -51.0276  -55.4385 H         1 UNK         0.0863 
     98 H98        28.0510  -52.6177  -56.2241 H         1 UNK         0.0808 
     99 H99        28.0792  -51.8418  -57.8068 H         1 UNK         0.0808 
    100 H100       26.6411  -52.6988  -57.2677 H         1 UNK         0.0808 
    101 H101       28.9605  -50.2754  -56.0616 H         1 UNK         0.3118 
    102 H102       28.9822  -46.9369  -54.9478 H         1 UNK         0.0546 
    103 H103       28.8232  -47.9983  -52.6947 H         1 UNK         0.0828 
    104 H104       30.5002  -47.7046  -53.1129 H         1 UNK         0.0828 
    105 H105       29.8440  -49.3281  -53.2259 H         1 UNK         0.0828 
    106 H106       31.1378  -48.7407  -55.3087 H         1 UNK         0.3005 
    107 H107       30.9082  -49.4035  -58.6613 H         1 UNK         0.1257 
    108 H108       31.7389  -46.8946  -58.9234 H         1 UNK         0.0775 
    109 H109       32.5964  -48.2204  -59.6350 H         1 UNK         0.0775 
    110 H110       35.0946  -45.3013  -58.2594 H         1 UNK         0.0840 
    111 H111       33.6790  -45.3812  -59.2733 H         1 UNK         0.0840 
    112 H112       33.2030  -49.5283  -56.9985 H         1 UNK         0.2987 
    113 H113       32.2160  -52.1288  -54.8799 H         1 UNK         0.0785 
    114 H114       32.6391  -53.5014  -56.9319 H         1 UNK         0.0798 
    115 H115       34.0337  -53.4949  -55.8672 H         1 UNK         0.0798 
    116 H116       34.0302  -52.5011  -57.3257 H         1 UNK         0.0798 
    117 H117       34.8089  -51.1799  -55.3239 H         1 UNK         0.3079 
    118 H118       35.7482  -49.9234  -53.6682 H         1 UNK         0.0794 
    119 H119       34.6569  -47.3046  -54.8467 H         1 UNK         0.0786 
    120 H120       35.6744  -48.4701  -55.6864 H         1 UNK         0.0786 
    121 H121       36.3213  -47.5671  -54.3288 H         1 UNK         0.0786 
    122 H122       34.5367  -47.5980  -52.4048 H         1 UNK         0.3032 
    123 H123       33.6858  -49.0829  -49.3903 H         1 UNK         0.1094 
    124 H124       36.3608  -47.6245  -49.7716 H         1 UNK         0.0794 
    125 H125       35.4444  -47.7215  -48.2667 H         1 UNK         0.0794 
    126 H126       36.1419  -49.1721  -48.9667 H         1 UNK         0.0794 
    127 H127       34.3030  -46.3697  -50.2830 H         1 UNK         0.3016 
@<TRIPOS>BOND
     1    1    2 1    
     2    1   67 1    
     3    1   68 1    
     4    1   69 1    
     5    2    3 2    
     6    2    4 am   BACKBONE|DICT|INTERRES
     7    4    5 1    
     8    4   70 1    
     9    5    6 1    
    10    5   65 1    
    11    5   71 1    
    12    6    7 1    
    13    6   72 1    
    14    6   73 1    
    15    7    8 1    
    16    8    9 1    
    17    8   74 1    
    18    8   75 1    
    19    9   10 ar   
    20    9   14 ar   
    21   10   11 ar   
    22   10   76 1    
    23   11   12 ar   
    24   11   48 1    
    25   12   13 ar   
    26   12   77 1    
    27   13   14 ar   
    28   13   15 1    
    29   14   78 1    
    30   15   16 1    
    31   15   79 1    
    32   15   80 1    
    33   16   17 1    
    34   17   18 1    
    35   17   81 1    
    36   17   82 1    
    37   18   19 1    
    38   18   22 1    
    39   18   83 1    
    40   19   20 am   BACKBONE|DICT|INTERRES
    41   19   21 2    
    42   20   84 1    
    43   20   85 1    
    44   22   23 am   BACKBONE|DICT|INTERRES
    45   22   86 1    
    46   23   24 2    
    47   23   25 1    
    48   25   26 1    
    49   25   27 1    
    50   25   87 1    
    51   26   88 1    
    52   26   89 1    
    53   26   90 1    
    54   27   28 am   BACKBONE|DICT|INTERRES
    55   27   91 1    
    56   28   29 2    
    57   28   30 1    
    58   30   31 1    
    59   30   32 1    
    60   30   92 1    
    61   31   93 1    
    62   31   94 1    
    63   31   95 1    
    64   32   33 am   BACKBONE|DICT|INTERRES
    65   32   96 1    
    66   33   34 2    
    67   33   35 1    
    68   35   36 1    
    69   35   37 1    
    70   35   97 1    
    71   36   98 1    
    72   36   99 1    
    73   36  100 1    
    74   37   38 am   BACKBONE|DICT|INTERRES
    75   37  101 1    
    76   38   39 2    
    77   38   40 1    
    78   40   41 1    
    79   40   42 1    
    80   40  102 1    
    81   41  103 1    
    82   41  104 1    
    83   41  105 1    
    84   42   43 am   BACKBONE|DICT|INTERRES
    85   42  106 1    
    86   43   44 2    
    87   43   45 1    
    88   45   46 1    
    89   45   49 1    
    90   45  107 1    
    91   46   47 1    
    92   46  108 1    
    93   46  109 1    
    94   47   48 1    
    95   48  110 1    
    96   48  111 1    
    97   49   50 am   BACKBONE|DICT|INTERRES
    98   49  112 1    
    99   50   51 2    
   100   50   52 1    
   101   52   53 1    
   102   52   54 1    
   103   52  113 1    
   104   53  114 1    
   105   53  115 1    
   106   53  116 1    
   107   54   55 am   BACKBONE|DICT|INTERRES
   108   54  117 1    
   109   55   56 2    
   110   55   57 1    
   111   57   58 1    
   112   57   59 1    
   113   57  118 1    
   114   58  119 1    
   115   58  120 1    
   116   58  121 1    
   117   59   60 am   BACKBONE|DICT|INTERRES
   118   59  122 1    
   119   60   61 2    
   120   60   62 1    
   121   62   63 1    
   122   62   64 1    
   123   62  123 1    
   124   63  124 1    
   125   63  125 1    
   126   63  126 1    
   127   64   65 am   BACKBONE|DICT|INTERRES
   128   64  127 1    
   129   65   66 2    
@<TRIPOS>SUBSTRUCTURE
     1 UNK         1 GROUP             0       ****    0 ROOT    
