@<TRIPOS>MOLECULE
3R134
127   129    1
SMALL
USER_CHARGES


@<TRIPOS>ATOM
      1 CA         39.1014  -45.9462  -54.8254 C.3       0 UNK        -0.1968 
      2 C          37.8162  -46.6936  -54.5026 C.2       0 UNK         0.4852 
      3 O          37.8054  -47.9265  -54.5100 O.2       0 UNK        -0.5359 
      4 N          36.7319  -45.9618  -54.2142 N.am      1 UNK        -0.4300 
      5 CA         35.4093  -46.4994  -53.8792 C.3       1 UNK         0.0863 
      6 C6         34.2798  -45.4691  -54.1367 C.3       11 UNK        -0.0953 
      7 S7         34.1509  -44.9399  -55.8771 S.3       11 UNK        -0.2369 
      8 C8         33.3275  -43.3223  -55.6954 C.3       11 UNK         0.0226 
      9 C9         31.8545  -43.4628  -55.3299 C.ar      11 UNK        -0.0699 
     10 C10        31.4774  -43.6908  -54.0037 C.ar      11 UNK        -0.0804 
     11 C11        30.1330  -43.8497  -53.6602 C.ar      11 UNK        -0.0871 
     12 C12        29.1525  -43.7393  -54.6500 C.ar      11 UNK        -0.1008 
     13 C13        29.5126  -43.4761  -55.9758 C.ar      11 UNK        -0.0735 
     14 C14        30.8651  -43.3511  -56.3122 C.ar      11 UNK        -0.0945 
     15 C15        28.4394  -43.3420  -57.0448 C.3       11 UNK         0.0169 
     16 S16        27.4842  -41.8093  -56.8450 S.3       11 UNK        -0.2669 
     17 C17        26.4188  -41.8505  -58.3263 C.3       11 UNK        -0.0850 
     18 CA         25.0724  -42.5736  -58.0654 C.3       10 UNK         0.0855 
     19 C          24.0191  -42.1977  -59.1421 C.2       10 UNK         0.5543 
     20 N          23.2485  -41.1440  -58.9108 N.am      10 UNK        -0.7343 
     21 O          23.9217  -42.8219  -60.1971 O.2       10 UNK        -0.5027 
     22 N          25.2580  -44.0283  -57.9908 N.am      10 UNK        -0.4495 
     23 C          24.4289  -44.8780  -57.3804 C.2       10 UNK         0.4903 
     24 O          23.4658  -44.5162  -56.7032 O.2       10 UNK        -0.4860 
     25 CA         24.6965  -46.3884  -57.5334 C.3       9 UNK         0.0227 
     26 CB         23.7881  -46.9924  -58.6215 C.3       9 UNK        -0.1964 
     27 N          26.0958  -46.7977  -57.7376 N.am      9 UNK        -0.4231 
     28 C          26.9098  -46.5706  -58.7806 C.2       9 UNK         0.5014 
     29 O          26.6391  -45.8095  -59.7097 O.2       9 UNK        -0.5270 
     30 CA         28.2543  -47.3213  -58.8021 C.3       8 UNK         0.0284 
     31 CB         29.3704  -46.4961  -58.1447 C.3       8 UNK        -0.1977 
     32 N          28.1959  -48.6361  -58.1629 N.am      8 UNK        -0.4342 
     33 C          27.5409  -49.7009  -58.6459 C.2       8 UNK         0.5039 
     34 O          26.9038  -49.6993  -59.6998 O.2       8 UNK        -0.5547 
     35 CA         27.6098  -50.9850  -57.8071 C.3       7 UNK         0.0281 
     36 CB         28.9407  -51.7194  -58.0411 C.3       7 UNK        -0.1963 
     37 N          27.4536  -50.6939  -56.3817 N.am      7 UNK        -0.4444 
     38 C          26.2730  -50.5911  -55.7571 C.2       7 UNK         0.5104 
     39 O          25.1879  -50.7920  -56.3030 O.2       7 UNK        -0.5100 
     40 CA         26.3001  -50.1982  -54.2684 C.3       6 UNK         0.0396 
     41 CB         26.3015  -51.4546  -53.3833 C.3       6 UNK        -0.1801 
     42 N          27.4378  -49.3497  -53.9026 N.am      6 UNK        -0.4747 
     43 C          27.6065  -48.0836  -54.3115 C.2       6 UNK         0.5012 
     44 O          26.8237  -47.4946  -55.0559 O.2       6 UNK        -0.5003 
     45 CA         28.8889  -47.3693  -53.8410 C.3       5 UNK         0.0782 
     46 C46        28.6495  -46.7332  -52.4490 C.3       11 UNK        -0.0868 
     47 S47        30.1065  -45.8680  -51.7728 S.3       11 UNK        -0.2515 
     48 C48        29.7568  -44.1361  -52.2152 C.3       11 UNK         0.0199 
     49 N          30.0853  -48.2226  -53.8736 N.am      5 UNK        -0.4607 
     50 C          30.5291  -48.9153  -54.9324 C.2       4 UNK         0.5031 
     51 O          29.9087  -49.0141  -55.9902 O.2       4 UNK        -0.5119 
     52 CA         31.8956  -49.6081  -54.8213 C.3       4 UNK         0.0263 
     53 CB         32.9152  -48.8943  -55.7233 C.3       4 UNK        -0.1967 
     54 N          32.4239  -49.6781  -53.4553 N.am      4 UNK        -0.4237 
     55 C          32.0343  -50.5722  -52.5338 C.2       3 UNK         0.4908 
     56 O          31.1164  -51.3727  -52.7172 O.2       3 UNK        -0.5102 
     57 CA         32.8080  -50.5894  -51.2020 C.3       3 UNK         0.0241 
     58 CB         32.9051  -52.0035  -50.5939 C.3       3 UNK        -0.1971 
     59 N          34.1492  -50.0196  -51.3614 N.am      3 UNK        -0.4139 
     60 C          34.8419  -49.3846  -50.4080 C.2       2 UNK         0.5016 
     61 O          34.4580  -49.2523  -49.2452 O.2       2 UNK        -0.5319 
     62 CA         36.1823  -48.7643  -50.8422 C.3       2 UNK         0.0286 
     63 CB         37.2972  -49.8227  -50.8545 C.3       2 UNK        -0.1963 
     64 N          36.1109  -48.1095  -52.1548 N.am      2 UNK        -0.4790 
     65 C          35.3778  -47.0201  -52.4242 C.2       1 UNK         0.5024 
     66 O          34.7075  -46.4326  -51.5738 O.2       1 UNK        -0.4888 
     67 H67        39.8803  -46.2147  -54.1123 H         1 UNK         0.0892 
     68 H68        38.9652  -44.8655  -54.7889 H         1 UNK         0.0892 
     69 H69        39.4474  -46.2105  -55.8243 H         1 UNK         0.0892 
     70 H70        36.8019  -44.9542  -54.2122 H         1 UNK         0.3107 
     71 H71        35.2210  -47.3584  -54.5260 H         1 UNK         0.0773 
     72 H72        34.4314  -44.5874  -53.5114 H         1 UNK         0.0680 
     73 H73        33.3129  -45.8901  -53.8535 H         1 UNK         0.0680 
     74 H74        33.8461  -42.7250  -54.9441 H         1 UNK         0.0650 
     75 H75        33.4277  -42.7767  -56.6348 H         1 UNK         0.0650 
     76 H76        32.2316  -43.7642  -53.2331 H         1 UNK         0.1397 
     77 H77        28.1077  -43.8490  -54.3918 H         1 UNK         0.1363 
     78 H78        31.1490  -43.1630  -57.3386 H         1 UNK         0.1355 
     79 H79        27.7687  -44.1983  -56.9818 H         1 UNK         0.0707 
     80 H80        28.8831  -43.3565  -58.0410 H         1 UNK         0.0707 
     81 H81        26.9510  -42.2990  -59.1674 H         1 UNK         0.1034 
     82 H82        26.2449  -40.8100  -58.6086 H         1 UNK         0.1034 
     83 H83        24.6882  -42.2326  -57.1014 H         1 UNK         0.0482 
     84 H84        22.5679  -40.8726  -59.6035 H         1 UNK         0.3460 
     85 H85        23.3264  -40.6189  -58.0534 H         1 UNK         0.3460 
     86 H86        25.9394  -44.4334  -58.6255 H         1 UNK         0.2989 
     87 H87        24.4089  -46.8419  -56.5835 H         1 UNK         0.0559 
     88 H88        24.0070  -46.5806  -59.6074 H         1 UNK         0.0848 
     89 H89        22.7375  -46.7872  -58.4115 H         1 UNK         0.0848 
     90 H90        23.9024  -48.0752  -58.6768 H         1 UNK         0.0848 
     91 H91        26.4760  -47.3357  -56.9633 H         1 UNK         0.3144 
     92 H92        28.5231  -47.4761  -59.8491 H         1 UNK         0.0727 
     93 H93        30.3268  -47.0181  -58.1870 H         1 UNK         0.0790 
     94 H94        29.1557  -46.2865  -57.0965 H         1 UNK         0.0790 
     95 H95        29.5043  -45.5451  -58.6594 H         1 UNK         0.0790 
     96 H96        28.7489  -48.7534  -57.3140 H         1 UNK         0.3215 
     97 H97        26.8012  -51.6435  -58.1330 H         1 UNK         0.0863 
     98 H98        28.9776  -52.6570  -57.4864 H         1 UNK         0.0808 
     99 H99        29.7991  -51.1181  -57.7395 H         1 UNK         0.0808 
    100 H100       29.0692  -51.9628  -59.0967 H         1 UNK         0.0808 
    101 H101       28.2928  -50.4472  -55.8724 H         1 UNK         0.3118 
    102 H102       25.3854  -49.6386  -54.0613 H         1 UNK         0.0546 
    103 H103       25.4513  -52.0972  -53.6168 H         1 UNK         0.0828 
    104 H104       26.2287  -51.1967  -52.3267 H         1 UNK         0.0828 
    105 H105       27.2061  -52.0477  -53.5237 H         1 UNK         0.0828 
    106 H106       28.1463  -49.7610  -53.3106 H         1 UNK         0.3005 
    107 H107       29.0728  -46.5636  -54.5539 H         1 UNK         0.1257 
    108 H108       28.3701  -47.5017  -51.7253 H         1 UNK         0.0775 
    109 H109       27.8071  -46.0397  -52.4855 H         1 UNK         0.0775 
    110 H110       28.7089  -43.8995  -52.0249 H         1 UNK         0.0840 
    111 H111       30.3353  -43.4845  -51.5586 H         1 UNK         0.0840 
    112 H112       30.6631  -48.1892  -53.0472 H         1 UNK         0.2987 
    113 H113       31.7703  -50.6269  -55.1951 H         1 UNK         0.0785 
    114 H114       32.5979  -48.9253  -56.7668 H         1 UNK         0.0798 
    115 H115       33.8971  -49.3650  -55.6730 H         1 UNK         0.0798 
    116 H116       33.0239  -47.8437  -55.4552 H         1 UNK         0.0798 
    117 H117       33.1329  -49.0059  -53.2075 H         1 UNK         0.3079 
    118 H118       32.2380  -49.9587  -50.5163 H         1 UNK         0.0794 
    119 H119       33.4452  -52.6856  -51.2513 H         1 UNK         0.0786 
    120 H120       31.9155  -52.4285  -50.4208 H         1 UNK         0.0786 
    121 H121       33.4182  -51.9889  -49.6322 H         1 UNK         0.0786 
    122 H122       34.5761  -50.1233  -52.2715 H         1 UNK         0.3032 
    123 H123       36.4430  -48.0037  -50.1025 H         1 UNK         0.1094 
    124 H124       38.2665  -49.3736  -51.0718 H         1 UNK         0.0794 
    125 H125       37.3795  -50.3137  -49.8837 H         1 UNK         0.0794 
    126 H126       37.1136  -50.5990  -51.5983 H         1 UNK         0.0794 
    127 H127       36.7016  -48.4727  -52.8978 H         1 UNK         0.3016 
@<TRIPOS>BOND
     1    1    2 1    
     2    1   67 1    
     3    1   68 1    
     4    1   69 1    
     5    2    3 2    
     6    2    4 am   BACKBONE|DICT|INTERRES
     7    4    5 1    
     8    4   70 1    
     9    5    6 1    
    10    5   65 1    
    11    5   71 1    
    12    6    7 1    
    13    6   72 1    
    14    6   73 1    
    15    7    8 1    
    16    8    9 1    
    17    8   74 1    
    18    8   75 1    
    19    9   10 ar   
    20    9   14 ar   
    21   10   11 ar   
    22   10   76 1    
    23   11   12 ar   
    24   11   48 1    
    25   12   13 ar   
    26   12   77 1    
    27   13   14 ar   
    28   13   15 1    
    29   14   78 1    
    30   15   16 1    
    31   15   79 1    
    32   15   80 1    
    33   16   17 1    
    34   17   18 1    
    35   17   81 1    
    36   17   82 1    
    37   18   19 1    
    38   18   22 1    
    39   18   83 1    
    40   19   20 am   BACKBONE|DICT|INTERRES
    41   19   21 2    
    42   20   84 1    
    43   20   85 1    
    44   22   23 am   BACKBONE|DICT|INTERRES
    45   22   86 1    
    46   23   24 2    
    47   23   25 1    
    48   25   26 1    
    49   25   27 1    
    50   25   87 1    
    51   26   88 1    
    52   26   89 1    
    53   26   90 1    
    54   27   28 am   BACKBONE|DICT|INTERRES
    55   27   91 1    
    56   28   29 2    
    57   28   30 1    
    58   30   31 1    
    59   30   32 1    
    60   30   92 1    
    61   31   93 1    
    62   31   94 1    
    63   31   95 1    
    64   32   33 am   BACKBONE|DICT|INTERRES
    65   32   96 1    
    66   33   34 2    
    67   33   35 1    
    68   35   36 1    
    69   35   37 1    
    70   35   97 1    
    71   36   98 1    
    72   36   99 1    
    73   36  100 1    
    74   37   38 am   BACKBONE|DICT|INTERRES
    75   37  101 1    
    76   38   39 2    
    77   38   40 1    
    78   40   41 1    
    79   40   42 1    
    80   40  102 1    
    81   41  103 1    
    82   41  104 1    
    83   41  105 1    
    84   42   43 am   BACKBONE|DICT|INTERRES
    85   42  106 1    
    86   43   44 2    
    87   43   45 1    
    88   45   46 1    
    89   45   49 1    
    90   45  107 1    
    91   46   47 1    
    92   46  108 1    
    93   46  109 1    
    94   47   48 1    
    95   48  110 1    
    96   48  111 1    
    97   49   50 am   BACKBONE|DICT|INTERRES
    98   49  112 1    
    99   50   51 2    
   100   50   52 1    
   101   52   53 1    
   102   52   54 1    
   103   52  113 1    
   104   53  114 1    
   105   53  115 1    
   106   53  116 1    
   107   54   55 am   BACKBONE|DICT|INTERRES
   108   54  117 1    
   109   55   56 2    
   110   55   57 1    
   111   57   58 1    
   112   57   59 1    
   113   57  118 1    
   114   58  119 1    
   115   58  120 1    
   116   58  121 1    
   117   59   60 am   BACKBONE|DICT|INTERRES
   118   59  122 1    
   119   60   61 2    
   120   60   62 1    
   121   62   63 1    
   122   62   64 1    
   123   62  123 1    
   124   63  124 1    
   125   63  125 1    
   126   63  126 1    
   127   64   65 am   BACKBONE|DICT|INTERRES
   128   64  127 1    
   129   65   66 2    
@<TRIPOS>SUBSTRUCTURE
     1 UNK         1 GROUP             0       ****    0 ROOT    
