@<TRIPOS>MOLECULE
3R134
127   129    1
SMALL
USER_CHARGES


@<TRIPOS>ATOM
      1 CA         33.1304  -44.8634  -59.4759 C.3       0 UNK        -0.1968 
      2 C          32.7441  -46.1909  -58.8410 C.2       0 UNK         0.4852 
      3 O          32.6838  -47.2054  -59.5365 O.2       0 UNK        -0.5359 
      4 N          32.4759  -46.1843  -57.5292 N.am      1 UNK        -0.4300 
      5 CA         32.0467  -47.3483  -56.7479 C.3       1 UNK         0.0863 
      6 C6         31.4730  -46.9418  -55.3681 C.3       11 UNK        -0.0953 
      7 S7         32.6008  -45.9734  -54.3013 S.3       11 UNK        -0.2369 
      8 C8         32.0145  -44.2657  -54.5522 C.3       11 UNK         0.0226 
      9 C9         30.6117  -44.0537  -54.0051 C.ar      11 UNK        -0.0699 
     10 C10        30.4067  -43.9194  -52.6301 C.ar      11 UNK        -0.0804 
     11 C11        29.1156  -43.7576  -52.1189 C.ar      11 UNK        -0.0871 
     12 C12        28.0281  -43.6976  -52.9963 C.ar      11 UNK        -0.1008 
     13 C13        28.2244  -43.8171  -54.3748 C.ar      11 UNK        -0.0735 
     14 C14        29.5170  -44.0008  -54.8721 C.ar      11 UNK        -0.0945 
     15 C15        27.0366  -43.7909  -55.3236 C.3       11 UNK         0.0169 
     16 S16        26.5069  -42.1033  -55.7408 S.3       11 UNK        -0.2669 
     17 C17        27.8495  -41.5226  -56.8358 C.3       11 UNK        -0.0850 
     18 CA         27.4732  -41.5974  -58.3450 C.3       10 UNK         0.0855 
     19 C          28.3657  -40.6815  -59.2429 C.2       10 UNK         0.5543 
     20 N          28.5656  -41.0020  -60.5158 N.am      10 UNK        -0.7343 
     21 O          28.8560  -39.6467  -58.7972 O.2       10 UNK        -0.5027 
     22 N          27.3180  -42.9819  -58.8404 N.am      10 UNK        -0.4495 
     23 C          28.2999  -43.8807  -59.0104 C.2       10 UNK         0.4903 
     24 O          29.4724  -43.6961  -58.6794 O.2       10 UNK        -0.4860 
     25 CA         27.8791  -45.2005  -59.6859 C.3       9 UNK         0.0227 
     26 CB         29.0698  -45.9631  -60.3073 C.3       9 UNK        -0.1964 
     27 N          27.0995  -46.0601  -58.7856 N.am      9 UNK        -0.4231 
     28 C          27.5212  -46.6568  -57.6601 C.2       9 UNK         0.5014 
     29 O          28.6739  -46.5865  -57.2357 O.2       9 UNK        -0.5270 
     30 CA         26.4686  -47.4166  -56.8268 C.3       8 UNK         0.0284 
     31 CB         25.1853  -47.7953  -57.6023 C.3       8 UNK        -0.1977 
     32 N          27.0452  -48.5834  -56.1509 N.am      8 UNK        -0.4342 
     33 C          27.5652  -49.6816  -56.7238 C.2       8 UNK         0.5039 
     34 O          27.5687  -49.8856  -57.9391 O.2       8 UNK        -0.5547 
     35 CA         28.1891  -50.7472  -55.7987 C.3       7 UNK         0.0281 
     36 CB         29.7152  -50.7890  -55.9791 C.3       7 UNK        -0.1963 
     37 N          27.8800  -50.5481  -54.3797 N.am      7 UNK        -0.4444 
     38 C          26.6885  -50.8044  -53.8185 C.2       7 UNK         0.5104 
     39 O          25.7499  -51.3210  -54.4256 O.2       7 UNK        -0.5100 
     40 CA         26.4874  -50.4028  -52.3425 C.3       6 UNK         0.0396 
     41 CB         26.5992  -51.6378  -51.4345 C.3       6 UNK        -0.1801 
     42 N          27.4080  -49.3700  -51.8557 N.am      6 UNK        -0.4747 
     43 C          27.5334  -48.1283  -52.3491 C.2       6 UNK         0.5012 
     44 O          26.8486  -47.6902  -53.2744 O.2       6 UNK        -0.5003 
     45 CA         28.6417  -47.2447  -51.7367 C.3       5 UNK         0.0782 
     46 C46        28.0452  -46.3868  -50.5895 C.3       11 UNK        -0.0868 
     47 S47        29.2647  -45.2743  -49.8073 S.3       11 UNK        -0.2515 
     48 C48        28.8971  -43.6829  -50.6157 C.3       11 UNK         0.0199 
     49 N          29.8463  -47.9745  -51.3027 N.am      5 UNK        -0.4607 
     50 C          30.5471  -48.8768  -52.0026 C.2       4 UNK         0.5031 
     51 O          30.1943  -49.3401  -53.0898 O.2       4 UNK        -0.5119 
     52 CA         31.8420  -49.3805  -51.3578 C.3       4 UNK         0.0263 
     53 CB         31.5308  -50.3209  -50.1757 C.3       4 UNK        -0.1967 
     54 N          32.6151  -50.0852  -52.3770 N.am      4 UNK        -0.4237 
     55 C          33.9040  -50.4340  -52.2944 C.2       3 UNK         0.4908 
     56 O          34.6309  -50.1621  -51.3373 O.2       3 UNK        -0.5102 
     57 CA         34.4732  -51.2331  -53.4768 C.3       3 UNK         0.0241 
     58 CB         33.5977  -52.4507  -53.8294 C.3       3 UNK        -0.1971 
     59 N          34.6345  -50.3913  -54.6598 N.am      3 UNK        -0.4139 
     60 C          35.6537  -49.5556  -54.8893 C.2       2 UNK         0.5016 
     61 O          36.6022  -49.4029  -54.1187 O.2       2 UNK        -0.5319 
     62 CA         35.6272  -48.7624  -56.2109 C.3       2 UNK         0.0286 
     63 CB         35.9489  -49.6691  -57.4154 C.3       2 UNK        -0.1963 
     64 N          34.3979  -47.9871  -56.4352 N.am      2 UNK        -0.4790 
     65 C          33.1404  -48.4255  -56.6045 C.2       1 UNK         0.5024 
     66 O          32.8236  -49.6157  -56.6309 O.2       1 UNK        -0.4888 
     67 H67        33.1847  -44.0598  -58.7417 H         1 UNK         0.0892 
     68 H68        34.1020  -44.9463  -59.9622 H         1 UNK         0.0892 
     69 H69        32.3933  -44.5824  -60.2278 H         1 UNK         0.0892 
     70 H70        32.5368  -45.3187  -57.0155 H         1 UNK         0.3107 
     71 H71        31.2311  -47.8155  -57.3050 H         1 UNK         0.0773 
     72 H72        30.5474  -46.3901  -55.5094 H         1 UNK         0.0680 
     73 H73        31.1795  -47.8319  -54.8167 H         1 UNK         0.0680 
     74 H74        32.0557  -44.0134  -55.6123 H         1 UNK         0.0650 
     75 H75        32.7027  -43.5833  -54.0514 H         1 UNK         0.0650 
     76 H76        31.2495  -43.9743  -51.9543 H         1 UNK         0.1397 
     77 H77        27.0258  -43.5737  -52.6093 H         1 UNK         0.1363 
     78 H78        29.6690  -44.1216  -55.9368 H         1 UNK         0.1355 
     79 H79        27.2763  -44.3160  -56.2440 H         1 UNK         0.0707 
     80 H80        26.1983  -44.3257  -54.8747 H         1 UNK         0.0707 
     81 H81        28.7771  -42.0582  -56.6416 H         1 UNK         0.1034 
     82 H82        28.0461  -40.4912  -56.5387 H         1 UNK         0.1034 
     83 H83        26.4821  -41.1526  -58.4422 H         1 UNK         0.0482 
     84 H84        28.1572  -41.8363  -60.9044 H         1 UNK         0.3460 
     85 H85        29.1323  -40.4005  -61.0927 H         1 UNK         0.3460 
     86 H86        26.3857  -43.2257  -59.1424 H         1 UNK         0.2989 
     87 H87        27.2119  -44.9351  -60.5075 H         1 UNK         0.0559 
     88 H88        29.7995  -46.2685  -59.5574 H         1 UNK         0.0848 
     89 H89        29.5964  -45.3393  -61.0302 H         1 UNK         0.0848 
     90 H90        28.7373  -46.8589  -60.8312 H         1 UNK         0.0848 
     91 H91        26.1266  -46.1774  -59.0322 H         1 UNK         0.3144 
     92 H92        26.1755  -46.7359  -56.0265 H         1 UNK         0.0727 
     93 H93        24.5094  -48.3785  -56.9766 H         1 UNK         0.0790 
     94 H94        24.6333  -46.9096  -57.9185 H         1 UNK         0.0790 
     95 H95        25.4035  -48.3884  -58.4913 H         1 UNK         0.0790 
     96 H96        27.1172  -48.4935  -55.1424 H         1 UNK         0.3215 
     97 H97        27.7863  -51.7155  -56.1035 H         1 UNK         0.0863 
     98 H98        30.1719  -49.8310  -55.7325 H         1 UNK         0.0808 
     99 H99        29.9827  -51.0159  -57.0118 H         1 UNK         0.0808 
    100 H100       30.1733  -51.5520  -55.3498 H         1 UNK         0.0808 
    101 H101       28.6111  -50.1215  -53.8139 H         1 UNK         0.3118 
    102 H102       25.4751  -50.0037  -52.2535 H         1 UNK         0.0546 
    103 H103       26.3610  -51.3942  -50.3990 H         1 UNK         0.0828 
    104 H104       27.6020  -52.0663  -51.4584 H         1 UNK         0.0828 
    105 H105       25.9044  -52.4182  -51.7484 H         1 UNK         0.0828 
    106 H106       28.0343  -49.6409  -51.1112 H         1 UNK         0.3005 
    107 H107       28.9664  -46.5742  -52.5353 H         1 UNK         0.1257 
    108 H108       27.6429  -47.0314  -49.8055 H         1 UNK         0.0775 
    109 H109       27.2024  -45.7933  -50.9496 H         1 UNK         0.0775 
    110 H110       27.8739  -43.3855  -50.3810 H         1 UNK         0.0840 
    111 H111       29.5444  -42.9122  -50.1951 H         1 UNK         0.0840 
    112 H112       30.2178  -47.6697  -50.4142 H         1 UNK         0.2987 
    113 H113       32.4151  -48.5179  -51.0115 H         1 UNK         0.0785 
    114 H114       32.4425  -50.6721  -49.6923 H         1 UNK         0.0798 
    115 H115       30.9411  -49.8154  -49.4101 H         1 UNK         0.0798 
    116 H116       30.9665  -51.1969  -50.4983 H         1 UNK         0.0798 
    117 H117       32.0813  -50.2952  -53.2123 H         1 UNK         0.3079 
    118 H118       35.4544  -51.6082  -53.1772 H         1 UNK         0.0794 
    119 H119       33.4094  -53.0658  -52.9483 H         1 UNK         0.0786 
    120 H120       34.0911  -53.0859  -54.5655 H         1 UNK         0.0786 
    121 H121       32.6304  -52.1610  -54.2415 H         1 UNK         0.0786 
    122 H122       33.8853  -50.3974  -55.3484 H         1 UNK         0.3032 
    123 H123       36.4295  -48.0254  -56.1408 H         1 UNK         0.1094 
    124 H124       35.1963  -50.4443  -57.5613 H         1 UNK         0.0794 
    125 H125       36.0156  -49.0917  -58.3375 H         1 UNK         0.0794 
    126 H126       36.9072  -50.1716  -57.2777 H         1 UNK         0.0794 
    127 H127       34.5180  -46.9843  -56.3953 H         1 UNK         0.3016 
@<TRIPOS>BOND
     1    1    2 1    
     2    1   67 1    
     3    1   68 1    
     4    1   69 1    
     5    2    3 2    
     6    2    4 am   BACKBONE|DICT|INTERRES
     7    4    5 1    
     8    4   70 1    
     9    5    6 1    
    10    5   65 1    
    11    5   71 1    
    12    6    7 1    
    13    6   72 1    
    14    6   73 1    
    15    7    8 1    
    16    8    9 1    
    17    8   74 1    
    18    8   75 1    
    19    9   10 ar   
    20    9   14 ar   
    21   10   11 ar   
    22   10   76 1    
    23   11   12 ar   
    24   11   48 1    
    25   12   13 ar   
    26   12   77 1    
    27   13   14 ar   
    28   13   15 1    
    29   14   78 1    
    30   15   16 1    
    31   15   79 1    
    32   15   80 1    
    33   16   17 1    
    34   17   18 1    
    35   17   81 1    
    36   17   82 1    
    37   18   19 1    
    38   18   22 1    
    39   18   83 1    
    40   19   20 am   BACKBONE|DICT|INTERRES
    41   19   21 2    
    42   20   84 1    
    43   20   85 1    
    44   22   23 am   BACKBONE|DICT|INTERRES
    45   22   86 1    
    46   23   24 2    
    47   23   25 1    
    48   25   26 1    
    49   25   27 1    
    50   25   87 1    
    51   26   88 1    
    52   26   89 1    
    53   26   90 1    
    54   27   28 am   BACKBONE|DICT|INTERRES
    55   27   91 1    
    56   28   29 2    
    57   28   30 1    
    58   30   31 1    
    59   30   32 1    
    60   30   92 1    
    61   31   93 1    
    62   31   94 1    
    63   31   95 1    
    64   32   33 am   BACKBONE|DICT|INTERRES
    65   32   96 1    
    66   33   34 2    
    67   33   35 1    
    68   35   36 1    
    69   35   37 1    
    70   35   97 1    
    71   36   98 1    
    72   36   99 1    
    73   36  100 1    
    74   37   38 am   BACKBONE|DICT|INTERRES
    75   37  101 1    
    76   38   39 2    
    77   38   40 1    
    78   40   41 1    
    79   40   42 1    
    80   40  102 1    
    81   41  103 1    
    82   41  104 1    
    83   41  105 1    
    84   42   43 am   BACKBONE|DICT|INTERRES
    85   42  106 1    
    86   43   44 2    
    87   43   45 1    
    88   45   46 1    
    89   45   49 1    
    90   45  107 1    
    91   46   47 1    
    92   46  108 1    
    93   46  109 1    
    94   47   48 1    
    95   48  110 1    
    96   48  111 1    
    97   49   50 am   BACKBONE|DICT|INTERRES
    98   49  112 1    
    99   50   51 2    
   100   50   52 1    
   101   52   53 1    
   102   52   54 1    
   103   52  113 1    
   104   53  114 1    
   105   53  115 1    
   106   53  116 1    
   107   54   55 am   BACKBONE|DICT|INTERRES
   108   54  117 1    
   109   55   56 2    
   110   55   57 1    
   111   57   58 1    
   112   57   59 1    
   113   57  118 1    
   114   58  119 1    
   115   58  120 1    
   116   58  121 1    
   117   59   60 am   BACKBONE|DICT|INTERRES
   118   59  122 1    
   119   60   61 2    
   120   60   62 1    
   121   62   63 1    
   122   62   64 1    
   123   62  123 1    
   124   63  124 1    
   125   63  125 1    
   126   63  126 1    
   127   64   65 am   BACKBONE|DICT|INTERRES
   128   64  127 1    
   129   65   66 2    
@<TRIPOS>SUBSTRUCTURE
     1 UNK         1 GROUP             0       ****    0 ROOT    
