@<TRIPOS>MOLECULE
3R134
127   129    1
SMALL
USER_CHARGES


@<TRIPOS>ATOM
      1 CA         30.2456  -45.1221  -51.6865 C.3       0 UNK        -0.1968 
      2 C          31.6768  -45.2798  -51.2045 C.2       0 UNK         0.4852 
      3 O          31.9207  -45.9505  -50.2008 O.2       0 UNK        -0.5359 
      4 N          32.6238  -44.6553  -51.9161 N.am      1 UNK        -0.4300 
      5 CA         34.0530  -44.6404  -51.5738 C.3       1 UNK         0.0863 
      6 C6         34.8003  -43.4547  -52.2330 C.3       11 UNK        -0.0953 
      7 S7         34.0120  -41.8526  -51.8392 S.3       11 UNK        -0.2369 
      8 C8         33.5683  -41.1961  -53.4805 C.3       11 UNK         0.0226 
      9 C9         32.6545  -42.1235  -54.2726 C.ar      11 UNK        -0.0699 
     10 C10        33.1625  -42.8288  -55.3676 C.ar      11 UNK        -0.0804 
     11 C11        32.3416  -43.6619  -56.1318 C.ar      11 UNK        -0.0871 
     12 C12        30.9925  -43.7882  -55.7781 C.ar      11 UNK        -0.1008 
     13 C13        30.4657  -43.0817  -54.6935 C.ar      11 UNK        -0.0735 
     14 C14        31.3010  -42.2489  -53.9416 C.ar      11 UNK        -0.0945 
     15 C15        28.9891  -43.2254  -54.3566 C.3       11 UNK         0.0169 
     16 S16        27.9487  -42.5577  -55.6879 S.3       11 UNK        -0.2669 
     17 C17        26.3228  -43.2770  -55.2698 C.3       11 UNK        -0.0850 
     18 CA         26.1558  -44.7865  -55.6354 C.3       10 UNK         0.0855 
     19 C          24.7120  -45.2972  -55.3378 C.2       10 UNK         0.5543 
     20 N          24.1106  -46.1423  -56.1674 N.am      10 UNK        -0.7343 
     21 O          24.1279  -44.9318  -54.3202 O.2       10 UNK        -0.5027 
     22 N          26.6724  -45.1480  -56.9666 N.am      10 UNK        -0.4495 
     23 C          26.2534  -44.6493  -58.1365 C.2       10 UNK         0.4903 
     24 O          25.4043  -43.7650  -58.2538 O.2       10 UNK        -0.4860 
     25 CA         26.8717  -45.2624  -59.4043 C.3       9 UNK         0.0227 
     26 CB         28.1775  -44.5320  -59.7598 C.3       9 UNK        -0.1964 
     27 N          27.1356  -46.7032  -59.3182 N.am      9 UNK        -0.4231 
     28 C          26.2516  -47.6620  -59.0034 C.2       9 UNK         0.5014 
     29 O          25.0787  -47.4426  -58.6965 O.2       9 UNK        -0.5270 
     30 CA         26.7537  -49.1125  -59.0365 C.3       8 UNK         0.0284 
     31 CB         28.0456  -49.3083  -59.8568 C.3       8 UNK        -0.1977 
     32 N          26.9835  -49.5679  -57.6677 N.am      8 UNK        -0.4342 
     33 C          26.2517  -50.4836  -57.0203 C.2       8 UNK         0.5039 
     34 O          25.2723  -51.0474  -57.5120 O.2       8 UNK        -0.5547 
     35 CA         26.6871  -50.8765  -55.5941 C.3       7 UNK         0.0281 
     36 CB         27.2917  -52.2908  -55.5943 C.3       7 UNK        -0.1963 
     37 N          27.6528  -49.9579  -54.9879 N.am      7 UNK        -0.4444 
     38 C          27.3608  -48.7433  -54.5041 C.2       7 UNK         0.5104 
     39 O          26.2276  -48.2680  -54.4726 O.2       7 UNK        -0.5100 
     40 CA         28.5501  -47.9071  -54.0006 C.3       6 UNK         0.0396 
     41 CB         28.9182  -48.3249  -52.5669 C.3       6 UNK        -0.1801 
     42 N          29.7285  -48.0237  -54.8647 N.am      6 UNK        -0.4747 
     43 C          29.7773  -47.7135  -56.1698 C.2       6 UNK         0.5012 
     44 O          28.8315  -47.2256  -56.7905 O.2       6 UNK        -0.5003 
     45 CA         31.0722  -48.0817  -56.9198 C.3       5 UNK         0.0782 
     46 C46        32.1571  -46.9862  -56.8020 C.3       11 UNK        -0.0868 
     47 S47        31.9572  -45.7036  -58.0772 S.3       11 UNK        -0.2515 
     48 C48        32.9502  -44.3561  -57.3522 C.3       11 UNK         0.0199 
     49 N          31.5765  -49.3804  -56.4743 N.am      5 UNK        -0.4607 
     50 C          31.1100  -50.5625  -56.8968 C.2       4 UNK         0.5031 
     51 O          30.2269  -50.6862  -57.7432 O.2       4 UNK        -0.5119 
     52 CA         31.7215  -51.8217  -56.2584 C.3       4 UNK         0.0263 
     53 CB         32.9145  -52.3194  -57.0896 C.3       4 UNK        -0.1967 
     54 N          32.1469  -51.6122  -54.8720 N.am      4 UNK        -0.4237 
     55 C          31.3058  -51.3758  -53.8560 C.2       3 UNK         0.4908 
     56 O          30.0808  -51.3491  -53.9747 O.2       3 UNK        -0.5102 
     57 CA         31.9415  -51.0679  -52.4898 C.3       3 UNK         0.0241 
     58 CB         32.2628  -52.3698  -51.7387 C.3       3 UNK        -0.1971 
     59 N          33.1448  -50.2270  -52.5608 N.am      3 UNK        -0.4139 
     60 C          33.1789  -48.9891  -53.0727 C.2       2 UNK         0.5016 
     61 O          32.2233  -48.4528  -53.6399 O.2       2 UNK        -0.5319 
     62 CA         34.4940  -48.2140  -52.9592 C.3       2 UNK         0.0286 
     63 CB         35.3114  -48.3211  -54.2567 C.3       2 UNK        -0.1963 
     64 N          34.1364  -46.8217  -52.7153 N.am      2 UNK        -0.4790 
     65 C          34.7535  -45.9848  -51.8733 C.2       1 UNK         0.5024 
     66 O          35.8219  -46.2459  -51.3184 O.2       1 UNK        -0.4888 
     67 H67        29.9465  -44.0754  -51.6486 H         1 UNK         0.0892 
     68 H68        30.1520  -45.4810  -52.7106 H         1 UNK         0.0892 
     69 H69        29.5591  -45.6904  -51.0594 H         1 UNK         0.0892 
     70 H70        32.3645  -44.0978  -52.7194 H         1 UNK         0.3107 
     71 H71        34.1234  -44.5004  -50.4926 H         1 UNK         0.0773 
     72 H72        34.8685  -43.5897  -53.3126 H         1 UNK         0.0680 
     73 H73        35.8297  -43.4111  -51.8723 H         1 UNK         0.0680 
     74 H74        33.0735  -40.2329  -53.3489 H         1 UNK         0.0650 
     75 H75        34.4852  -40.9909  -54.0354 H         1 UNK         0.0650 
     76 H76        34.2038  -42.7153  -55.6383 H         1 UNK         0.1397 
     77 H77        30.3262  -44.4116  -56.3576 H         1 UNK         0.1363 
     78 H78        30.9008  -41.6919  -53.1051 H         1 UNK         0.1355 
     79 H79        28.7623  -44.2821  -54.2166 H         1 UNK         0.0707 
     80 H80        28.7445  -42.7202  -53.4211 H         1 UNK         0.0707 
     81 H81        26.1414  -43.1234  -54.2044 H         1 UNK         0.1034 
     82 H82        25.5645  -42.6843  -55.7843 H         1 UNK         0.1034 
     83 H83        26.7812  -45.3494  -54.9450 H         1 UNK         0.0482 
     84 H84        24.5752  -46.4735  -57.0061 H         1 UNK         0.3460 
     85 H85        23.1837  -46.4688  -55.9481 H         1 UNK         0.3460 
     86 H86        27.3736  -45.8828  -56.9803 H         1 UNK         0.2989 
     87 H87        26.1617  -45.1140  -60.2201 H         1 UNK         0.0559 
     88 H88        28.9425  -44.6800  -58.9956 H         1 UNK         0.0848 
     89 H89        28.0121  -43.4573  -59.8479 H         1 UNK         0.0848 
     90 H90        28.5818  -44.8748  -60.7123 H         1 UNK         0.0848 
     91 H91        28.0825  -46.9922  -59.5138 H         1 UNK         0.3144 
     92 H92        25.9696  -49.7041  -59.5133 H         1 UNK         0.0727 
     93 H93        28.9016  -48.7991  -59.4137 H         1 UNK         0.0790 
     94 H94        27.9265  -48.9438  -60.8781 H         1 UNK         0.0790 
     95 H95        28.3019  -50.3659  -59.9245 H         1 UNK         0.0790 
     96 H96        27.7313  -49.1065  -57.1656 H         1 UNK         0.3215 
     97 H97        25.7889  -50.8877  -54.9729 H         1 UNK         0.0863 
     98 H98        27.5419  -52.6159  -54.5842 H         1 UNK         0.0808 
     99 H99        28.2008  -52.3378  -56.1955 H         1 UNK         0.0808 
    100 H100       26.5901  -53.0186  -56.0041 H         1 UNK         0.0808 
    101 H101       28.6059  -50.2962  -54.8915 H         1 UNK         0.3118 
    102 H102       28.2584  -46.8565  -53.9891 H         1 UNK         0.0546 
    103 H103       29.8460  -47.8636  -52.2322 H         1 UNK         0.0828 
    104 H104       29.0441  -49.4037  -52.4777 H         1 UNK         0.0828 
    105 H105       28.1341  -48.0345  -51.8669 H         1 UNK         0.0828 
    106 H106       30.5814  -48.3651  -54.4239 H         1 UNK         0.3005 
    107 H107       30.8086  -48.1863  -57.9749 H         1 UNK         0.1257 
    108 H108       32.1771  -46.5416  -55.8046 H         1 UNK         0.0775 
    109 H109       33.1477  -47.4173  -56.9548 H         1 UNK         0.0775 
    110 H110       33.9352  -44.7510  -57.0976 H         1 UNK         0.0840 
    111 H111       33.1115  -43.6033  -58.1248 H         1 UNK         0.0840 
    112 H112       32.2512  -49.3627  -55.7224 H         1 UNK         0.2987 
    113 H113       30.9528  -52.5977  -56.2624 H         1 UNK         0.0785 
    114 H114       33.7267  -51.5915  -57.1096 H         1 UNK         0.0798 
    115 H115       32.6182  -52.5053  -58.1230 H         1 UNK         0.0798 
    116 H116       33.3105  -53.2554  -56.6952 H         1 UNK         0.0798 
    117 H117       33.1393  -51.6205  -54.6864 H         1 UNK         0.3079 
    118 H118       31.1994  -50.5181  -51.9073 H         1 UNK         0.0794 
    119 H119       33.0342  -52.9512  -52.2452 H         1 UNK         0.0786 
    120 H120       31.3775  -53.0026  -51.6588 H         1 UNK         0.0786 
    121 H121       32.6056  -52.1684  -50.7236 H         1 UNK         0.0786 
    122 H122       33.9785  -50.5981  -52.1273 H         1 UNK         0.3032 
    123 H123       35.0724  -48.6086  -52.1204 H         1 UNK         0.1094 
    124 H124       36.2421  -47.7582  -54.1827 H         1 UNK         0.0794 
    125 H125       35.5754  -49.3576  -54.4705 H         1 UNK         0.0794 
    126 H126       34.7589  -47.9382  -55.1153 H         1 UNK         0.0794 
    127 H127       33.2306  -46.5606  -53.0840 H         1 UNK         0.3016 
@<TRIPOS>BOND
     1    1    2 1    
     2    1   67 1    
     3    1   68 1    
     4    1   69 1    
     5    2    3 2    
     6    2    4 am   BACKBONE|DICT|INTERRES
     7    4    5 1    
     8    4   70 1    
     9    5    6 1    
    10    5   65 1    
    11    5   71 1    
    12    6    7 1    
    13    6   72 1    
    14    6   73 1    
    15    7    8 1    
    16    8    9 1    
    17    8   74 1    
    18    8   75 1    
    19    9   10 ar   
    20    9   14 ar   
    21   10   11 ar   
    22   10   76 1    
    23   11   12 ar   
    24   11   48 1    
    25   12   13 ar   
    26   12   77 1    
    27   13   14 ar   
    28   13   15 1    
    29   14   78 1    
    30   15   16 1    
    31   15   79 1    
    32   15   80 1    
    33   16   17 1    
    34   17   18 1    
    35   17   81 1    
    36   17   82 1    
    37   18   19 1    
    38   18   22 1    
    39   18   83 1    
    40   19   20 am   BACKBONE|DICT|INTERRES
    41   19   21 2    
    42   20   84 1    
    43   20   85 1    
    44   22   23 am   BACKBONE|DICT|INTERRES
    45   22   86 1    
    46   23   24 2    
    47   23   25 1    
    48   25   26 1    
    49   25   27 1    
    50   25   87 1    
    51   26   88 1    
    52   26   89 1    
    53   26   90 1    
    54   27   28 am   BACKBONE|DICT|INTERRES
    55   27   91 1    
    56   28   29 2    
    57   28   30 1    
    58   30   31 1    
    59   30   32 1    
    60   30   92 1    
    61   31   93 1    
    62   31   94 1    
    63   31   95 1    
    64   32   33 am   BACKBONE|DICT|INTERRES
    65   32   96 1    
    66   33   34 2    
    67   33   35 1    
    68   35   36 1    
    69   35   37 1    
    70   35   97 1    
    71   36   98 1    
    72   36   99 1    
    73   36  100 1    
    74   37   38 am   BACKBONE|DICT|INTERRES
    75   37  101 1    
    76   38   39 2    
    77   38   40 1    
    78   40   41 1    
    79   40   42 1    
    80   40  102 1    
    81   41  103 1    
    82   41  104 1    
    83   41  105 1    
    84   42   43 am   BACKBONE|DICT|INTERRES
    85   42  106 1    
    86   43   44 2    
    87   43   45 1    
    88   45   46 1    
    89   45   49 1    
    90   45  107 1    
    91   46   47 1    
    92   46  108 1    
    93   46  109 1    
    94   47   48 1    
    95   48  110 1    
    96   48  111 1    
    97   49   50 am   BACKBONE|DICT|INTERRES
    98   49  112 1    
    99   50   51 2    
   100   50   52 1    
   101   52   53 1    
   102   52   54 1    
   103   52  113 1    
   104   53  114 1    
   105   53  115 1    
   106   53  116 1    
   107   54   55 am   BACKBONE|DICT|INTERRES
   108   54  117 1    
   109   55   56 2    
   110   55   57 1    
   111   57   58 1    
   112   57   59 1    
   113   57  118 1    
   114   58  119 1    
   115   58  120 1    
   116   58  121 1    
   117   59   60 am   BACKBONE|DICT|INTERRES
   118   59  122 1    
   119   60   61 2    
   120   60   62 1    
   121   62   63 1    
   122   62   64 1    
   123   62  123 1    
   124   63  124 1    
   125   63  125 1    
   126   63  126 1    
   127   64   65 am   BACKBONE|DICT|INTERRES
   128   64  127 1    
   129   65   66 2    
@<TRIPOS>SUBSTRUCTURE
     1 UNK         1 GROUP             0       ****    0 ROOT    
