@<TRIPOS>MOLECULE
3R134
127   129    1
SMALL
USER_CHARGES


@<TRIPOS>ATOM
      1 CA         37.5357  -43.3406  -52.0830 C.3       0 UNK        -0.1968 
      2 C          37.2145  -44.3541  -53.1718 C.2       0 UNK         0.4852 
      3 O          38.1114  -44.7603  -53.9128 O.2       0 UNK        -0.5359 
      4 N          35.9428  -44.7594  -53.2768 N.am      1 UNK        -0.4300 
      5 CA         35.4635  -45.7720  -54.2213 C.3       1 UNK         0.0863 
      6 C6         33.9295  -45.6867  -54.4302 C.3       11 UNK        -0.0953 
      7 S7         33.4749  -44.2093  -55.3960 S.3       11 UNK        -0.2369 
      8 C8         32.9161  -43.0493  -54.1081 C.3       11 UNK         0.0226 
      9 C9         31.4378  -43.2069  -53.7792 C.ar      11 UNK        -0.0699 
     10 C10        31.0268  -43.6137  -52.5057 C.ar      11 UNK        -0.0804 
     11 C11        29.6659  -43.6771  -52.1857 C.ar      11 UNK        -0.0871 
     12 C12        28.7129  -43.3615  -53.1598 C.ar      11 UNK        -0.1008 
     13 C13        29.1115  -42.9556  -54.4370 C.ar      11 UNK        -0.0735 
     14 C14        30.4747  -42.8744  -54.7362 C.ar      11 UNK        -0.0945 
     15 C15        28.0759  -42.5362  -55.4710 C.3       11 UNK         0.0169 
     16 S16        28.1723  -43.5323  -56.9908 S.3       11 UNK        -0.2669 
     17 C17        26.9371  -42.6799  -58.0341 C.3       11 UNK        -0.0850 
     18 CA         25.7131  -43.5800  -58.3711 C.3       10 UNK         0.0855 
     19 C          24.5604  -42.7947  -59.0698 C.2       10 UNK         0.5543 
     20 N          23.7875  -43.4087  -59.9575 N.am      10 UNK        -0.7343 
     21 O          24.3383  -41.6210  -58.7817 O.2       10 UNK        -0.5027 
     22 N          26.0980  -44.8371  -59.0383 N.am      10 UNK        -0.4495 
     23 C          26.6896  -44.9639  -60.2322 C.2       10 UNK         0.4903 
     24 O          26.9687  -44.0154  -60.9675 O.2       10 UNK        -0.4860 
     25 CA         27.0394  -46.4028  -60.6620 C.3       9 UNK         0.0227 
     26 CB         27.6129  -46.4720  -62.0903 C.3       9 UNK        -0.1964 
     27 N          27.9844  -47.0403  -59.7393 N.am      9 UNK        -0.4231 
     28 C          27.6771  -47.5391  -58.5350 C.2       9 UNK         0.5014 
     29 O          26.5459  -47.4877  -58.0426 O.2       9 UNK        -0.5270 
     30 CA         28.8368  -48.1699  -57.7430 C.3       8 UNK         0.0284 
     31 CB         29.5182  -47.1148  -56.8545 C.3       8 UNK        -0.1977 
     32 N          28.3879  -49.2744  -56.8961 N.am      8 UNK        -0.4342 
     33 C          27.8194  -50.4113  -57.3205 C.2       8 UNK         0.5039 
     34 O          27.6972  -50.7205  -58.5070 O.2       8 UNK        -0.5547 
     35 CA         27.2974  -51.3675  -56.2371 C.3       7 UNK         0.0281 
     36 CB         28.4117  -52.3226  -55.7768 C.3       7 UNK        -0.1963 
     37 N          26.7685  -50.6373  -55.0813 N.am      7 UNK        -0.4444 
     38 C          25.4969  -50.2332  -54.9518 C.2       7 UNK         0.5104 
     39 O          24.6180  -50.4734  -55.7804 O.2       7 UNK        -0.5100 
     40 CA         25.1196  -49.4566  -53.6745 C.3       6 UNK         0.0396 
     41 CB         24.3976  -50.3850  -52.6843 C.3       6 UNK        -0.1801 
     42 N          26.2714  -48.8512  -53.0007 N.am      6 UNK        -0.4747 
     43 C          26.8097  -47.6647  -53.3208 C.2       6 UNK         0.5012 
     44 O          26.3498  -46.9155  -54.1815 O.2       6 UNK        -0.5003 
     45 CA         28.0926  -47.2541  -52.5632 C.3       5 UNK         0.0782 
     46 C46        27.7409  -46.3584  -51.3513 C.3       11 UNK        -0.0868 
     47 S47        29.2257  -45.8037  -50.4439 S.3       11 UNK        -0.2515 
     48 C48        29.2301  -44.0147  -50.7664 C.3       11 UNK         0.0199 
     49 N          28.9317  -48.3947  -52.1643 N.am      5 UNK        -0.4607 
     50 C          29.4659  -49.2884  -53.0014 C.2       4 UNK         0.5031 
     51 O          29.2062  -49.3331  -54.2046 O.2       4 UNK        -0.5119 
     52 CA         30.3979  -50.3443  -52.3864 C.3       4 UNK         0.0263 
     53 CB         29.5827  -51.5529  -51.8979 C.3       4 UNK        -0.1967 
     54 N          31.3939  -50.7978  -53.3597 N.am      4 UNK        -0.4237 
     55 C          32.3587  -50.0180  -53.8633 C.2       3 UNK         0.4908 
     56 O          32.5899  -48.8701  -53.4747 O.2       3 UNK        -0.5102 
     57 CA         33.1615  -50.6053  -55.0336 C.3       3 UNK         0.0241 
     58 CB         32.4188  -50.3620  -56.3597 C.3       3 UNK        -0.1971 
     59 N          34.4815  -49.9825  -55.1069 N.am      3 UNK        -0.4139 
     60 C          35.5276  -50.3160  -54.3397 C.2       2 UNK         0.5016 
     61 O          35.5470  -51.2895  -53.5850 O.2       2 UNK        -0.5319 
     62 CA         36.7572  -49.3952  -54.4218 C.3       2 UNK         0.0286 
     63 CB         37.7222  -49.8759  -55.5180 C.3       2 UNK        -0.1963 
     64 N          36.3899  -47.9969  -54.6726 N.am      2 UNK        -0.4790 
     65 C          35.8812  -47.1755  -53.7428 C.2       1 UNK         0.5024 
     66 O          35.7290  -47.4883  -52.5594 O.2       1 UNK        -0.4888 
     67 H67        38.2659  -43.7552  -51.3885 H         1 UNK         0.0892 
     68 H68        37.9583  -42.4380  -52.5237 H         1 UNK         0.0892 
     69 H69        36.6501  -43.0569  -51.5146 H         1 UNK         0.0892 
     70 H70        35.2616  -44.4286  -52.6104 H         1 UNK         0.3107 
     71 H71        35.9474  -45.5893  -55.1839 H         1 UNK         0.0773 
     72 H72        33.5677  -46.5520  -54.9894 H         1 UNK         0.0680 
     73 H73        33.3937  -45.6999  -53.4790 H         1 UNK         0.0680 
     74 H74        33.0846  -42.0329  -54.4667 H         1 UNK         0.0650 
     75 H75        33.5323  -43.1584  -53.2153 H         1 UNK         0.0650 
     76 H76        31.7644  -43.8493  -51.7506 H         1 UNK         0.1397 
     77 H77        27.6606  -43.3983  -52.9134 H         1 UNK         0.1363 
     78 H78        30.7878  -42.5409  -55.7163 H         1 UNK         0.1355 
     79 H79        27.0664  -42.6126  -55.0637 H         1 UNK         0.0707 
     80 H80        28.2359  -41.4853  -55.7166 H         1 UNK         0.0707 
     81 H81        26.6118  -41.7709  -57.5253 H         1 UNK         0.1034 
     82 H82        27.4286  -42.3419  -58.9475 H         1 UNK         0.1034 
     83 H83        25.2808  -43.8910  -57.4194 H         1 UNK         0.0482 
     84 H84        23.0371  -42.8998  -60.3977 H         1 UNK         0.3460 
     85 H85        23.9518  -44.3743  -60.1925 H         1 UNK         0.3460 
     86 H86        25.9576  -45.6882  -58.5008 H         1 UNK         0.2989 
     87 H87        26.1092  -46.9751  -60.6552 H         1 UNK         0.0559 
     88 H88        28.5543  -45.9277  -62.1764 H         1 UNK         0.0848 
     89 H89        26.9189  -46.0377  -62.8112 H         1 UNK         0.0848 
     90 H90        27.7910  -47.5026  -62.3979 H         1 UNK         0.0848 
     91 H91        28.9460  -47.0822  -60.0456 H         1 UNK         0.3144 
     92 H92        29.5705  -48.5695  -58.4459 H         1 UNK         0.0727 
     93 H93        30.3546  -47.5391  -56.2982 H         1 UNK         0.0790 
     94 H94        28.8199  -46.6892  -56.1316 H         1 UNK         0.0790 
     95 H95        29.9097  -46.2896  -57.4507 H         1 UNK         0.0790 
     96 H96        28.5126  -49.1510  -55.8941 H         1 UNK         0.3215 
     97 H97        26.5014  -51.9702  -56.6804 H         1 UNK         0.0863 
     98 H98        29.2536  -51.7854  -55.3407 H         1 UNK         0.0808 
     99 H99        28.7969  -52.9021  -56.6168 H         1 UNK         0.0808 
    100 H100       28.0443  -53.0322  -55.0355 H         1 UNK         0.0808 
    101 H101       27.4484  -50.3206  -54.4010 H         1 UNK         0.3118 
    102 H102       24.4223  -48.6676  -53.9646 H         1 UNK         0.0546 
    103 H103       25.0390  -51.2031  -52.3540 H         1 UNK         0.0828 
    104 H104       23.5125  -50.8302  -53.1410 H         1 UNK         0.0828 
    105 H105       24.0637  -49.8409  -51.8007 H         1 UNK         0.0828 
    106 H106       26.7090  -49.3909  -52.2675 H         1 UNK         0.3005 
    107 H107       28.6840  -46.6573  -53.2625 H         1 UNK         0.1257 
    108 H108       27.1047  -46.9000  -50.6485 H         1 UNK         0.0775 
    109 H109       27.1623  -45.4900  -51.6708 H         1 UNK         0.0775 
    110 H110       28.2433  -43.6003  -50.5534 H         1 UNK         0.0840 
    111 H111       29.9101  -43.5375  -50.0590 H         1 UNK         0.0840 
    112 H112       29.1900  -48.4214  -51.1881 H         1 UNK         0.2987 
    113 H113       30.9240  -49.9008  -51.5383 H         1 UNK         0.0785 
    114 H114       28.8548  -51.2557  -51.1417 H         1 UNK         0.0798 
    115 H115       29.0318  -52.0276  -52.7109 H         1 UNK         0.0798 
    116 H116       30.2257  -52.3072  -51.4439 H         1 UNK         0.0798 
    117 H117       31.2551  -51.7166  -53.7532 H         1 UNK         0.3079 
    118 H118       33.2790  -51.6809  -54.8837 H         1 UNK         0.0794 
    119 H119       31.4315  -50.8259  -56.3497 H         1 UNK         0.0786 
    120 H120       32.9650  -50.7832  -57.2039 H         1 UNK         0.0786 
    121 H121       32.2721  -49.2982  -56.5513 H         1 UNK         0.0786 
    122 H122       34.5502  -49.1397  -55.6565 H         1 UNK         0.3032 
    123 H123       37.2756  -49.4536  -53.4615 H         1 UNK         0.1094 
    124 H124       38.0276  -50.9084  -55.3416 H         1 UNK         0.0794 
    125 H125       37.2658  -49.8362  -56.5079 H         1 UNK         0.0794 
    126 H126       38.6292  -49.2714  -55.5408 H         1 UNK         0.0794 
    127 H127       36.5153  -47.6540  -55.6150 H         1 UNK         0.3016 
@<TRIPOS>BOND
     1    1    2 1    
     2    1   67 1    
     3    1   68 1    
     4    1   69 1    
     5    2    3 2    
     6    2    4 am   BACKBONE|DICT|INTERRES
     7    4    5 1    
     8    4   70 1    
     9    5    6 1    
    10    5   65 1    
    11    5   71 1    
    12    6    7 1    
    13    6   72 1    
    14    6   73 1    
    15    7    8 1    
    16    8    9 1    
    17    8   74 1    
    18    8   75 1    
    19    9   10 ar   
    20    9   14 ar   
    21   10   11 ar   
    22   10   76 1    
    23   11   12 ar   
    24   11   48 1    
    25   12   13 ar   
    26   12   77 1    
    27   13   14 ar   
    28   13   15 1    
    29   14   78 1    
    30   15   16 1    
    31   15   79 1    
    32   15   80 1    
    33   16   17 1    
    34   17   18 1    
    35   17   81 1    
    36   17   82 1    
    37   18   19 1    
    38   18   22 1    
    39   18   83 1    
    40   19   20 am   BACKBONE|DICT|INTERRES
    41   19   21 2    
    42   20   84 1    
    43   20   85 1    
    44   22   23 am   BACKBONE|DICT|INTERRES
    45   22   86 1    
    46   23   24 2    
    47   23   25 1    
    48   25   26 1    
    49   25   27 1    
    50   25   87 1    
    51   26   88 1    
    52   26   89 1    
    53   26   90 1    
    54   27   28 am   BACKBONE|DICT|INTERRES
    55   27   91 1    
    56   28   29 2    
    57   28   30 1    
    58   30   31 1    
    59   30   32 1    
    60   30   92 1    
    61   31   93 1    
    62   31   94 1    
    63   31   95 1    
    64   32   33 am   BACKBONE|DICT|INTERRES
    65   32   96 1    
    66   33   34 2    
    67   33   35 1    
    68   35   36 1    
    69   35   37 1    
    70   35   97 1    
    71   36   98 1    
    72   36   99 1    
    73   36  100 1    
    74   37   38 am   BACKBONE|DICT|INTERRES
    75   37  101 1    
    76   38   39 2    
    77   38   40 1    
    78   40   41 1    
    79   40   42 1    
    80   40  102 1    
    81   41  103 1    
    82   41  104 1    
    83   41  105 1    
    84   42   43 am   BACKBONE|DICT|INTERRES
    85   42  106 1    
    86   43   44 2    
    87   43   45 1    
    88   45   46 1    
    89   45   49 1    
    90   45  107 1    
    91   46   47 1    
    92   46  108 1    
    93   46  109 1    
    94   47   48 1    
    95   48  110 1    
    96   48  111 1    
    97   49   50 am   BACKBONE|DICT|INTERRES
    98   49  112 1    
    99   50   51 2    
   100   50   52 1    
   101   52   53 1    
   102   52   54 1    
   103   52  113 1    
   104   53  114 1    
   105   53  115 1    
   106   53  116 1    
   107   54   55 am   BACKBONE|DICT|INTERRES
   108   54  117 1    
   109   55   56 2    
   110   55   57 1    
   111   57   58 1    
   112   57   59 1    
   113   57  118 1    
   114   58  119 1    
   115   58  120 1    
   116   58  121 1    
   117   59   60 am   BACKBONE|DICT|INTERRES
   118   59  122 1    
   119   60   61 2    
   120   60   62 1    
   121   62   63 1    
   122   62   64 1    
   123   62  123 1    
   124   63  124 1    
   125   63  125 1    
   126   63  126 1    
   127   64   65 am   BACKBONE|DICT|INTERRES
   128   64  127 1    
   129   65   66 2    
@<TRIPOS>SUBSTRUCTURE
     1 UNK         1 GROUP             0       ****    0 ROOT    
