@<TRIPOS>MOLECULE
3R134
127   129    1
SMALL
USER_CHARGES


@<TRIPOS>ATOM
      1 CA         32.0116  -43.9299  -58.6070 C.3       0 UNK        -0.1968 
      2 C          32.9137  -44.6318  -57.6021 C.2       0 UNK         0.4852 
      3 O          33.9820  -45.1184  -57.9776 O.2       0 UNK        -0.5359 
      4 N          32.4816  -44.6937  -56.3350 N.am      1 UNK        -0.4300 
      5 CA         33.1431  -45.3126  -55.1742 C.3       1 UNK         0.0863 
      6 C6         34.5514  -44.7495  -54.8314 C.3       11 UNK        -0.0953 
      7 S7         34.6525  -42.9270  -54.8127 S.3       11 UNK        -0.2369 
      8 C8         34.0923  -42.5202  -53.1260 C.3       11 UNK         0.0226 
      9 C9         32.5914  -42.7088  -52.9287 C.ar      11 UNK        -0.0699 
     10 C10        32.1130  -43.3774  -51.7971 C.ar      11 UNK        -0.0804 
     11 C11        30.7384  -43.5341  -51.5901 C.ar      11 UNK        -0.0871 
     12 C12        29.8385  -43.0335  -52.5342 C.ar      11 UNK        -0.1008 
     13 C13        30.3034  -42.3596  -53.6663 C.ar      11 UNK        -0.0735 
     14 C14        31.6773  -42.1907  -53.8535 C.ar      11 UNK        -0.0945 
     15 C15        29.3179  -41.7900  -54.6706 C.3       11 UNK         0.0169 
     16 S16        28.9775  -42.9731  -56.0066 S.3       11 UNK        -0.2669 
     17 C17        27.5659  -42.1181  -56.7933 C.3       11 UNK        -0.0850 
     18 CA         26.8518  -42.9479  -57.8920 C.3       10 UNK         0.0855 
     19 C          27.6412  -42.9581  -59.2358 C.2       10 UNK         0.5543 
     20 N          27.9484  -44.1020  -59.8352 N.am      10 UNK        -0.7343 
     21 O          27.9691  -41.8956  -59.7582 O.2       10 UNK        -0.5027 
     22 N          26.4632  -44.2699  -57.3832 N.am      10 UNK        -0.4495 
     23 C          25.4391  -45.0109  -57.8207 C.2       10 UNK         0.4903 
     24 O          24.6117  -44.6204  -58.6458 O.2       10 UNK        -0.4860 
     25 CA         25.3526  -46.4393  -57.2415 C.3       9 UNK         0.0227 
     26 CB         24.4171  -47.3614  -58.0505 C.3       9 UNK        -0.1964 
     27 N          26.6713  -47.0663  -57.0725 N.am      9 UNK        -0.4231 
     28 C          27.6019  -47.2518  -58.0237 C.2       9 UNK         0.5014 
     29 O          27.4707  -46.9138  -59.2004 O.2       9 UNK        -0.5270 
     30 CA         28.9204  -47.8946  -57.5736 C.3       8 UNK         0.0284 
     31 CB         29.7659  -46.8623  -56.8118 C.3       8 UNK        -0.1977 
     32 N          28.7059  -49.0861  -56.7497 N.am      8 UNK        -0.4342 
     33 C          28.1340  -50.2193  -57.1865 C.2       8 UNK         0.5039 
     34 O          27.8307  -50.4301  -58.3613 O.2       8 UNK        -0.5547 
     35 CA         27.8167  -51.2892  -56.1302 C.3       7 UNK         0.0281 
     36 CB         29.0230  -52.2149  -55.8946 C.3       7 UNK        -0.1963 
     37 N          27.3873  -50.6800  -54.8689 N.am      7 UNK        -0.4444 
     38 C          26.1591  -50.1837  -54.6559 C.2       7 UNK         0.5104 
     39 O          25.2349  -50.2753  -55.4638 O.2       7 UNK        -0.5100 
     40 CA         25.9121  -49.4540  -53.3227 C.3       6 UNK         0.0396 
     41 CB         25.3032  -50.4169  -52.2913 C.3       6 UNK        -0.1801 
     42 N          27.1190  -48.8443  -52.7592 N.am      6 UNK        -0.4747 
     43 C          27.7440  -47.7692  -53.2631 C.2       6 UNK         0.5012 
     44 O          27.3489  -47.1516  -54.2528 O.2       6 UNK        -0.5003 
     45 CA         29.0648  -47.3636  -52.5732 C.3       5 UNK         0.0782 
     46 C46        28.7872  -46.4195  -51.3763 C.3       11 UNK        -0.0868 
     47 S47        30.2966  -46.0145  -50.4270 S.3       11 UNK        -0.2515 
     48 C48        30.2292  -44.2014  -50.3218 C.3       11 UNK         0.0199 
     49 N          29.8632  -48.5311  -52.1744 N.am      5 UNK        -0.4607 
     50 C          30.3437  -49.4563  -53.0098 C.2       4 UNK         0.5031 
     51 O          30.0858  -49.4938  -54.2160 O.2       4 UNK        -0.5119 
     52 CA         31.2102  -50.5533  -52.3892 C.3       4 UNK         0.0263 
     53 CB         30.3420  -51.7434  -51.9402 C.3       4 UNK        -0.1967 
     54 N          32.1694  -50.9754  -53.3998 N.am      4 UNK        -0.4237 
     55 C          33.3203  -51.6239  -53.1857 C.2       3 UNK         0.4908 
     56 O          33.7014  -51.9965  -52.0753 O.2       3 UNK        -0.5102 
     57 CA         34.1991  -51.9115  -54.4178 C.3       3 UNK         0.0241 
     58 CB         33.9659  -53.3470  -54.9175 C.3       3 UNK        -0.1971 
     59 N          33.9449  -50.9737  -55.5147 N.am      3 UNK        -0.4139 
     60 C          34.4071  -49.7165  -55.5642 C.2       2 UNK         0.5016 
     61 O          35.2402  -49.2663  -54.7736 O.2       2 UNK        -0.5319 
     62 CA         33.8553  -48.8192  -56.6945 C.3       2 UNK         0.0286 
     63 CB         32.5055  -49.3109  -57.2669 C.3       2 UNK        -0.1963 
     64 N          33.7477  -47.4004  -56.3243 N.am      2 UNK        -0.4790 
     65 C          33.1608  -46.8538  -55.2475 C.2       1 UNK         0.5024 
     66 O          32.6163  -47.4981  -54.3523 O.2       1 UNK        -0.4888 
     67 H67        32.5516  -43.1169  -59.0912 H         1 UNK         0.0892 
     68 H68        31.6895  -44.6317  -59.3759 H         1 UNK         0.0892 
     69 H69        31.1215  -43.5110  -58.1381 H         1 UNK         0.0892 
     70 H70        31.5896  -44.2713  -56.1166 H         1 UNK         0.3107 
     71 H71        32.4923  -45.0722  -54.3329 H         1 UNK         0.0773 
     72 H72        34.8834  -45.1282  -53.8630 H         1 UNK         0.0680 
     73 H73        35.2881  -45.1001  -55.5561 H         1 UNK         0.0680 
     74 H74        34.3365  -41.4769  -52.9229 H         1 UNK         0.0650 
     75 H75        34.6611  -43.1150  -52.4098 H         1 UNK         0.0650 
     76 H76        32.8089  -43.7657  -51.0658 H         1 UNK         0.1397 
     77 H77        28.7743  -43.1501  -52.3808 H         1 UNK         0.1363 
     78 H78        32.0360  -41.6592  -54.7244 H         1 UNK         0.1355 
     79 H79        28.3870  -41.5288  -54.1647 H         1 UNK         0.0707 
     80 H80        29.7064  -40.8640  -55.0978 H         1 UNK         0.0707 
     81 H81        26.8403  -41.8781  -56.0145 H         1 UNK         0.1034 
     82 H82        27.9013  -41.1546  -57.1825 H         1 UNK         0.1034 
     83 H83        25.9284  -42.4139  -58.1246 H         1 UNK         0.0482 
     84 H84        28.4498  -44.0726  -60.7079 H         1 UNK         0.3460 
     85 H85        27.6603  -44.9981  -59.4563 H         1 UNK         0.3460 
     86 H86        27.0993  -44.6735  -56.7108 H         1 UNK         0.2989 
     87 H87        24.9336  -46.3385  -56.2393 H         1 UNK         0.0559 
     88 H88        23.4022  -46.9633  -58.0797 H         1 UNK         0.0848 
     89 H89        24.3621  -48.3556  -57.6063 H         1 UNK         0.0848 
     90 H90        24.7535  -47.4736  -59.0818 H         1 UNK         0.0848 
     91 H91        26.9168  -47.3086  -56.1149 H         1 UNK         0.3144 
     92 H92        29.4721  -48.2002  -58.4650 H         1 UNK         0.0727 
     93 H93        29.2584  -46.4781  -55.9276 H         1 UNK         0.0790 
     94 H94        29.9967  -46.0081  -57.4490 H         1 UNK         0.0790 
     95 H95        30.7082  -47.2908  -56.4859 H         1 UNK         0.0790 
     96 H96        29.0072  -49.0432  -55.7802 H         1 UNK         0.3215 
     97 H97        26.9983  -51.9025  -56.5145 H         1 UNK         0.0863 
     98 H98        28.7980  -52.9789  -55.1505 H         1 UNK         0.0808 
     99 H99        29.9051  -51.6701  -55.5610 H         1 UNK         0.0808 
    100 H100       29.2956  -52.7319  -56.8155 H         1 UNK         0.0808 
    101 H101       28.1062  -50.5095  -54.1793 H         1 UNK         0.3118 
    102 H102       25.1887  -48.6581  -53.5133 H         1 UNK         0.0546 
    103 H103       25.9854  -51.2314  -52.0446 H         1 UNK         0.0828 
    104 H104       24.3849  -50.8661  -52.6724 H         1 UNK         0.0828 
    105 H105       25.0476  -49.8993  -51.3666 H         1 UNK         0.0828 
    106 H106       27.5204  -49.2910  -51.9471 H         1 UNK         0.3005 
    107 H107       29.6549  -46.8133  -53.3104 H         1 UNK         0.1257 
    108 H108       28.0787  -46.8746  -50.6813 H         1 UNK         0.0775 
    109 H109       28.3164  -45.5001  -51.7282 H         1 UNK         0.0775 
    110 H110       29.2120  -43.8808  -50.0911 H         1 UNK         0.0840 
    111 H111       30.8410  -43.8802  -49.4774 H         1 UNK         0.0840 
    112 H112       30.1277  -48.5628  -51.2001 H         1 UNK         0.2987 
    113 H113       31.7507  -50.1403  -51.5348 H         1 UNK         0.0785 
    114 H114       29.6027  -51.4338  -51.2006 H         1 UNK         0.0798 
    115 H115       30.9466  -52.5260  -51.4817 H         1 UNK         0.0798 
    116 H116       29.8029  -52.1875  -52.7779 H         1 UNK         0.0798 
    117 H117       31.9451  -50.6452  -54.3294 H         1 UNK         0.3079 
    118 H118       35.2432  -51.8207  -54.1101 H         1 UNK         0.0794 
    119 H119       34.6194  -53.5863  -55.7567 H         1 UNK         0.0786 
    120 H120       32.9348  -53.5027  -55.2379 H         1 UNK         0.0786 
    121 H121       34.1747  -54.0721  -54.1295 H         1 UNK         0.0786 
    122 H122       33.2996  -51.2761  -56.2300 H         1 UNK         0.3032 
    123 H123       34.5930  -48.8645  -57.4972 H         1 UNK         0.1094 
    124 H124       31.7445  -49.4019  -56.4910 H         1 UNK         0.0794 
    125 H125       32.1269  -48.6231  -58.0232 H         1 UNK         0.0794 
    126 H126       32.6027  -50.2811  -57.7551 H         1 UNK         0.0794 
    127 H127       34.1241  -46.7388  -57.0003 H         1 UNK         0.3016 
@<TRIPOS>BOND
     1    1    2 1    
     2    1   67 1    
     3    1   68 1    
     4    1   69 1    
     5    2    3 2    
     6    2    4 am   BACKBONE|DICT|INTERRES
     7    4    5 1    
     8    4   70 1    
     9    5    6 1    
    10    5   65 1    
    11    5   71 1    
    12    6    7 1    
    13    6   72 1    
    14    6   73 1    
    15    7    8 1    
    16    8    9 1    
    17    8   74 1    
    18    8   75 1    
    19    9   10 ar   
    20    9   14 ar   
    21   10   11 ar   
    22   10   76 1    
    23   11   12 ar   
    24   11   48 1    
    25   12   13 ar   
    26   12   77 1    
    27   13   14 ar   
    28   13   15 1    
    29   14   78 1    
    30   15   16 1    
    31   15   79 1    
    32   15   80 1    
    33   16   17 1    
    34   17   18 1    
    35   17   81 1    
    36   17   82 1    
    37   18   19 1    
    38   18   22 1    
    39   18   83 1    
    40   19   20 am   BACKBONE|DICT|INTERRES
    41   19   21 2    
    42   20   84 1    
    43   20   85 1    
    44   22   23 am   BACKBONE|DICT|INTERRES
    45   22   86 1    
    46   23   24 2    
    47   23   25 1    
    48   25   26 1    
    49   25   27 1    
    50   25   87 1    
    51   26   88 1    
    52   26   89 1    
    53   26   90 1    
    54   27   28 am   BACKBONE|DICT|INTERRES
    55   27   91 1    
    56   28   29 2    
    57   28   30 1    
    58   30   31 1    
    59   30   32 1    
    60   30   92 1    
    61   31   93 1    
    62   31   94 1    
    63   31   95 1    
    64   32   33 am   BACKBONE|DICT|INTERRES
    65   32   96 1    
    66   33   34 2    
    67   33   35 1    
    68   35   36 1    
    69   35   37 1    
    70   35   97 1    
    71   36   98 1    
    72   36   99 1    
    73   36  100 1    
    74   37   38 am   BACKBONE|DICT|INTERRES
    75   37  101 1    
    76   38   39 2    
    77   38   40 1    
    78   40   41 1    
    79   40   42 1    
    80   40  102 1    
    81   41  103 1    
    82   41  104 1    
    83   41  105 1    
    84   42   43 am   BACKBONE|DICT|INTERRES
    85   42  106 1    
    86   43   44 2    
    87   43   45 1    
    88   45   46 1    
    89   45   49 1    
    90   45  107 1    
    91   46   47 1    
    92   46  108 1    
    93   46  109 1    
    94   47   48 1    
    95   48  110 1    
    96   48  111 1    
    97   49   50 am   BACKBONE|DICT|INTERRES
    98   49  112 1    
    99   50   51 2    
   100   50   52 1    
   101   52   53 1    
   102   52   54 1    
   103   52  113 1    
   104   53  114 1    
   105   53  115 1    
   106   53  116 1    
   107   54   55 am   BACKBONE|DICT|INTERRES
   108   54  117 1    
   109   55   56 2    
   110   55   57 1    
   111   57   58 1    
   112   57   59 1    
   113   57  118 1    
   114   58  119 1    
   115   58  120 1    
   116   58  121 1    
   117   59   60 am   BACKBONE|DICT|INTERRES
   118   59  122 1    
   119   60   61 2    
   120   60   62 1    
   121   62   63 1    
   122   62   64 1    
   123   62  123 1    
   124   63  124 1    
   125   63  125 1    
   126   63  126 1    
   127   64   65 am   BACKBONE|DICT|INTERRES
   128   64  127 1    
   129   65   66 2    
@<TRIPOS>SUBSTRUCTURE
     1 UNK         1 GROUP             0       ****    0 ROOT    
