@<TRIPOS>MOLECULE
3R134
127   129    1
SMALL
USER_CHARGES


@<TRIPOS>ATOM
      1 CA         29.8294  -45.9344  -54.7918 C.3       0 UNK        -0.1968 
      2 C          30.9949  -46.0916  -53.8344 C.2       0 UNK         0.4852 
      3 O          31.9991  -46.7115  -54.1869 O.2       0 UNK        -0.5359 
      4 N          30.8505  -45.5328  -52.6259 N.am      1 UNK        -0.4300 
      5 CA         31.8825  -45.4259  -51.5889 C.3       1 UNK         0.0863 
      6 C6         33.0237  -44.4504  -51.9973 C.3       11 UNK        -0.0953 
      7 S7         32.3778  -42.7841  -52.3756 S.3       11 UNK        -0.2369 
      8 C8         33.3569  -42.3104  -53.8334 C.3       11 UNK         0.0226 
      9 C9         32.7592  -42.7953  -55.1494 C.ar      11 UNK        -0.0699 
     10 C10        33.3582  -43.8454  -55.8542 C.ar      11 UNK        -0.0804 
     11 C11        32.9007  -44.1993  -57.1281 C.ar      11 UNK        -0.0871 
     12 C12        31.8175  -43.5114  -57.6839 C.ar      11 UNK        -0.1008 
     13 C13        31.2050  -42.4635  -56.9892 C.ar      11 UNK        -0.0735 
     14 C14        31.6720  -42.1189  -55.7161 C.ar      11 UNK        -0.0945 
     15 C15        30.1202  -41.6374  -57.6704 C.3       11 UNK         0.0169 
     16 S16        28.5441  -42.5330  -57.8417 S.3       11 UNK        -0.2669 
     17 C17        27.6421  -42.0574  -56.3233 C.3       11 UNK        -0.0850 
     18 CA         27.5724  -43.2080  -55.2822 C.3       10 UNK         0.0855 
     19 C          26.9229  -42.7734  -53.9327 C.2       10 UNK         0.5543 
     20 N          26.2143  -43.6487  -53.2286 N.am      10 UNK        -0.7343 
     21 O          27.0930  -41.6378  -53.4965 O.2       10 UNK        -0.5027 
     22 N          27.0445  -44.4655  -55.8465 N.am      10 UNK        -0.4495 
     23 C          25.8025  -44.6804  -56.2997 C.2       10 UNK         0.4903 
     24 O          24.9109  -43.8314  -56.3118 O.2       10 UNK        -0.4860 
     25 CA         25.5010  -46.0932  -56.8297 C.3       9 UNK         0.0227 
     26 CB         25.7077  -46.1352  -58.3507 C.3       9 UNK        -0.1964 
     27 N          26.3020  -47.1504  -56.1989 N.am      9 UNK        -0.4231 
     28 C          26.1966  -47.5267  -54.9159 C.2       9 UNK         0.5014 
     29 O          25.4362  -46.9858  -54.1103 O.2       9 UNK        -0.5270 
     30 CA         27.1125  -48.6804  -54.4574 C.3       8 UNK         0.0284 
     31 CB         26.8003  -49.1764  -53.0299 C.3       8 UNK        -0.1977 
     32 N          27.1528  -49.8032  -55.4017 N.am      8 UNK        -0.4342 
     33 C          26.1352  -50.5759  -55.8070 C.2       8 UNK         0.5039 
     34 O          24.9701  -50.4536  -55.4241 O.2       8 UNK        -0.5547 
     35 CA         26.5134  -51.6762  -56.8175 C.3       7 UNK         0.0281 
     36 CB         25.3005  -52.4816  -57.3332 C.3       7 UNK        -0.1963 
     37 N          27.3200  -51.1459  -57.9251 N.am      7 UNK        -0.4444 
     38 C          26.9417  -50.2469  -58.8472 C.2       7 UNK         0.5104 
     39 O          25.8029  -49.7879  -58.9406 O.2       7 UNK        -0.5100 
     40 CA         28.0464  -49.7751  -59.8172 C.3       6 UNK         0.0396 
     41 CB         27.6195  -48.5762  -60.6890 C.3       6 UNK        -0.1801 
     42 N          29.3261  -49.4909  -59.1521 N.am      6 UNK        -0.4747 
     43 C          29.5342  -48.6504  -58.1260 C.2       6 UNK         0.5012 
     44 O          28.6492  -47.9860  -57.5803 O.2       6 UNK        -0.5003 
     45 CA         30.9824  -48.5479  -57.6052 C.3       5 UNK         0.0782 
     46 C46        31.5513  -47.1457  -57.9347 C.3       11 UNK        -0.0868 
     47 S47        33.2821  -46.9544  -57.4061 S.3       11 UNK        -0.2515 
     48 C48        33.6377  -45.2549  -57.9448 C.3       11 UNK         0.0199 
     49 N          31.0962  -48.8638  -56.1737 N.am      5 UNK        -0.4607 
     50 C          30.5802  -49.9207  -55.5296 C.2       4 UNK         0.5031 
     51 O          29.8680  -50.7737  -56.0641 O.2       4 UNK        -0.5119 
     52 CA         30.8890  -50.0194  -54.0229 C.3       4 UNK         0.0263 
     53 CB         30.5323  -51.3945  -53.4210 C.3       4 UNK        -0.1967 
     54 N          32.2684  -49.6421  -53.6974 N.am      4 UNK        -0.4237 
     55 C          33.4021  -50.2166  -54.1308 C.2       3 UNK         0.4908 
     56 O          33.4386  -51.2112  -54.8561 O.2       3 UNK        -0.5102 
     57 CA         34.7307  -49.5720  -53.6914 C.3       3 UNK         0.0241 
     58 CB         35.3223  -48.7226  -54.8270 C.3       3 UNK        -0.1971 
     59 N          34.6009  -48.7329  -52.4991 N.am      3 UNK        -0.4139 
     60 C          34.4777  -49.1929  -51.2467 C.2       2 UNK         0.5016 
     61 O          34.5350  -50.3853  -50.9446 O.2       2 UNK        -0.5319 
     62 CA         34.2392  -48.1448  -50.1431 C.3       2 UNK         0.0286 
     63 CB         35.5584  -47.8041  -49.4309 C.3       2 UNK        -0.1963 
     64 N          33.6194  -46.9046  -50.6288 N.am      2 UNK        -0.4790 
     65 C          32.3696  -46.8146  -51.1078 C.2       1 UNK         0.5024 
     66 O          31.6066  -47.7824  -51.1652 O.2       1 UNK        -0.4888 
     67 H67        28.9159  -45.6876  -54.2535 H         1 UNK         0.0892 
     68 H68        30.0552  -45.1450  -55.5084 H         1 UNK         0.0892 
     69 H69        29.6536  -46.8494  -55.3475 H         1 UNK         0.0892 
     70 H70        29.9796  -45.0774  -52.3960 H         1 UNK         0.3107 
     71 H71        31.3819  -44.9940  -50.7210 H         1 UNK         0.0773 
     72 H72        33.5712  -44.8392  -52.8577 H         1 UNK         0.0680 
     73 H73        33.7495  -44.3267  -51.1925 H         1 UNK         0.0680 
     74 H74        33.4222  -41.2217  -53.8595 H         1 UNK         0.0650 
     75 H75        34.3821  -42.6652  -53.7161 H         1 UNK         0.0650 
     76 H76        34.2099  -44.3612  -55.4324 H         1 UNK         0.1397 
     77 H77        31.4744  -43.7609  -58.6789 H         1 UNK         0.1363 
     78 H78        31.2254  -41.2892  -55.1853 H         1 UNK         0.1355 
     79 H79        29.9649  -40.6892  -57.1540 H         1 UNK         0.0707 
     80 H80        30.4672  -41.3714  -58.6700 H         1 UNK         0.0707 
     81 H81        26.6361  -41.7450  -56.6078 H         1 UNK         0.1034 
     82 H82        28.1114  -41.1748  -55.8863 H         1 UNK         0.1034 
     83 H83        28.6045  -43.4195  -55.0083 H         1 UNK         0.0482 
     84 H84        26.0457  -44.5792  -53.5816 H         1 UNK         0.3460 
     85 H85        25.8074  -43.3613  -52.3527 H         1 UNK         0.3460 
     86 H86        27.7008  -45.2270  -55.9180 H         1 UNK         0.2989 
     87 H87        24.4501  -46.3056  -56.6230 H         1 UNK         0.0559 
     88 H88        25.0998  -45.3794  -58.8497 H         1 UNK         0.0848 
     89 H89        25.4215  -47.1025  -58.7629 H         1 UNK         0.0848 
     90 H90        26.7480  -45.9445  -58.6178 H         1 UNK         0.0848 
     91 H91        27.0002  -47.6073  -56.7836 H         1 UNK         0.3144 
     92 H92        28.1207  -48.2721  -54.4359 H         1 UNK         0.0727 
     93 H93        27.4910  -49.9612  -52.7219 H         1 UNK         0.0790 
     94 H94        25.7867  -49.5712  -52.9520 H         1 UNK         0.0790 
     95 H95        26.8895  -48.3656  -52.3057 H         1 UNK         0.0790 
     96 H96        28.0636  -50.0118  -55.8010 H         1 UNK         0.3215 
     97 H97        27.1584  -52.3719  -56.2778 H         1 UNK         0.0863 
     98 H98        25.6076  -53.2568  -58.0350 H         1 UNK         0.0808 
     99 H99        24.5694  -51.8457  -57.8329 H         1 UNK         0.0808 
    100 H100       24.7856  -52.9763  -56.5088 H         1 UNK         0.0808 
    101 H101       28.2961  -51.4137  -57.9142 H         1 UNK         0.3118 
    102 H102       28.2287  -50.6153  -60.4889 H         1 UNK         0.0546 
    103 H103       27.4463  -47.6835  -60.0906 H         1 UNK         0.0828 
    104 H104       26.6986  -48.7902  -61.2328 H         1 UNK         0.0828 
    105 H105       28.3816  -48.3359  -61.4299 H         1 UNK         0.0828 
    106 H106       30.1171  -50.0078  -59.5124 H         1 UNK         0.3005 
    107 H107       31.5892  -49.2900  -58.1276 H         1 UNK         0.1257 
    108 H108       31.5031  -46.9551  -59.0088 H         1 UNK         0.0775 
    109 H109       30.9570  -46.3653  -57.4574 H         1 UNK         0.0775 
    110 H110       34.7118  -45.0835  -57.8603 H         1 UNK         0.0840 
    111 H111       33.4030  -45.1579  -59.0059 H         1 UNK         0.0840 
    112 H112       31.6483  -48.2038  -55.6342 H         1 UNK         0.2987 
    113 H113       30.2559  -49.2773  -53.5348 H         1 UNK         0.0785 
    114 H114       30.7428  -51.4247  -52.3520 H         1 UNK         0.0798 
    115 H115       31.0901  -52.2019  -53.8965 H         1 UNK         0.0798 
    116 H116       29.4715  -51.6141  -53.5481 H         1 UNK         0.0798 
    117 H117       32.3551  -48.7988  -53.1420 H         1 UNK         0.3079 
    118 H118       35.4282  -50.3835  -53.4726 H         1 UNK         0.0794 
    119 H119       35.3853  -49.2911  -55.7561 H         1 UNK         0.0786 
    120 H120       36.3299  -48.3844  -54.5851 H         1 UNK         0.0786 
    121 H121       34.7120  -47.8406  -55.0228 H         1 UNK         0.0786 
    122 H122       34.5361  -47.7364  -52.6490 H         1 UNK         0.3032 
    123 H123       33.5624  -48.5966  -49.4140 H         1 UNK         0.1094 
    124 H124       36.2730  -47.3317  -50.1062 H         1 UNK         0.0794 
    125 H125       35.3937  -47.1309  -48.5894 H         1 UNK         0.0794 
    126 H126       36.0313  -48.7039  -49.0344 H         1 UNK         0.0794 
    127 H127       34.1878  -46.0703  -50.5923 H         1 UNK         0.3016 
@<TRIPOS>BOND
     1    1    2 1    
     2    1   67 1    
     3    1   68 1    
     4    1   69 1    
     5    2    3 2    
     6    2    4 am   BACKBONE|DICT|INTERRES
     7    4    5 1    
     8    4   70 1    
     9    5    6 1    
    10    5   65 1    
    11    5   71 1    
    12    6    7 1    
    13    6   72 1    
    14    6   73 1    
    15    7    8 1    
    16    8    9 1    
    17    8   74 1    
    18    8   75 1    
    19    9   10 ar   
    20    9   14 ar   
    21   10   11 ar   
    22   10   76 1    
    23   11   12 ar   
    24   11   48 1    
    25   12   13 ar   
    26   12   77 1    
    27   13   14 ar   
    28   13   15 1    
    29   14   78 1    
    30   15   16 1    
    31   15   79 1    
    32   15   80 1    
    33   16   17 1    
    34   17   18 1    
    35   17   81 1    
    36   17   82 1    
    37   18   19 1    
    38   18   22 1    
    39   18   83 1    
    40   19   20 am   BACKBONE|DICT|INTERRES
    41   19   21 2    
    42   20   84 1    
    43   20   85 1    
    44   22   23 am   BACKBONE|DICT|INTERRES
    45   22   86 1    
    46   23   24 2    
    47   23   25 1    
    48   25   26 1    
    49   25   27 1    
    50   25   87 1    
    51   26   88 1    
    52   26   89 1    
    53   26   90 1    
    54   27   28 am   BACKBONE|DICT|INTERRES
    55   27   91 1    
    56   28   29 2    
    57   28   30 1    
    58   30   31 1    
    59   30   32 1    
    60   30   92 1    
    61   31   93 1    
    62   31   94 1    
    63   31   95 1    
    64   32   33 am   BACKBONE|DICT|INTERRES
    65   32   96 1    
    66   33   34 2    
    67   33   35 1    
    68   35   36 1    
    69   35   37 1    
    70   35   97 1    
    71   36   98 1    
    72   36   99 1    
    73   36  100 1    
    74   37   38 am   BACKBONE|DICT|INTERRES
    75   37  101 1    
    76   38   39 2    
    77   38   40 1    
    78   40   41 1    
    79   40   42 1    
    80   40  102 1    
    81   41  103 1    
    82   41  104 1    
    83   41  105 1    
    84   42   43 am   BACKBONE|DICT|INTERRES
    85   42  106 1    
    86   43   44 2    
    87   43   45 1    
    88   45   46 1    
    89   45   49 1    
    90   45  107 1    
    91   46   47 1    
    92   46  108 1    
    93   46  109 1    
    94   47   48 1    
    95   48  110 1    
    96   48  111 1    
    97   49   50 am   BACKBONE|DICT|INTERRES
    98   49  112 1    
    99   50   51 2    
   100   50   52 1    
   101   52   53 1    
   102   52   54 1    
   103   52  113 1    
   104   53  114 1    
   105   53  115 1    
   106   53  116 1    
   107   54   55 am   BACKBONE|DICT|INTERRES
   108   54  117 1    
   109   55   56 2    
   110   55   57 1    
   111   57   58 1    
   112   57   59 1    
   113   57  118 1    
   114   58  119 1    
   115   58  120 1    
   116   58  121 1    
   117   59   60 am   BACKBONE|DICT|INTERRES
   118   59  122 1    
   119   60   61 2    
   120   60   62 1    
   121   62   63 1    
   122   62   64 1    
   123   62  123 1    
   124   63  124 1    
   125   63  125 1    
   126   63  126 1    
   127   64   65 am   BACKBONE|DICT|INTERRES
   128   64  127 1    
   129   65   66 2    
@<TRIPOS>SUBSTRUCTURE
     1 UNK         1 GROUP             0       ****    0 ROOT    
