@<TRIPOS>MOLECULE
3R134
127   129    1
SMALL
USER_CHARGES


@<TRIPOS>ATOM
      1 CA         31.0410  -43.6472  -49.0011 C.3       0 UNK        -0.1968 
      2 C          32.2548  -44.5242  -49.2722 C.2       0 UNK         0.4852 
      3 O          32.9176  -44.9611  -48.3297 O.2       0 UNK        -0.5359 
      4 N          32.5523  -44.7770  -50.5523 N.am      1 UNK        -0.4300 
      5 CA         33.6382  -45.6508  -51.0024 C.3       1 UNK         0.0863 
      6 C6         34.0023  -45.3846  -52.4839 C.3       11 UNK        -0.0953 
      7 S7         34.8590  -43.7934  -52.7270 S.3       11 UNK        -0.2369 
      8 C8         33.5020  -42.6471  -53.1530 C.3       11 UNK         0.0226 
      9 C9         32.6480  -43.0697  -54.3475 C.ar      11 UNK        -0.0699 
     10 C10        33.2080  -43.6854  -55.4722 C.ar      11 UNK        -0.0804 
     11 C11        32.4055  -44.0608  -56.5531 C.ar      11 UNK        -0.0871 
     12 C12        31.0318  -43.8046  -56.5129 C.ar      11 UNK        -0.1008 
     13 C13        30.4577  -43.1585  -55.4081 C.ar      11 UNK        -0.0735 
     14 C14        31.2755  -42.8069  -54.3301 C.ar      11 UNK        -0.0945 
     15 C15        28.9644  -42.8421  -55.3119 C.3       11 UNK         0.0169 
     16 S16        28.0690  -42.8134  -56.9026 S.3       11 UNK        -0.2669 
     17 C17        26.3491  -42.9919  -56.3172 C.3       11 UNK        -0.0850 
     18 CA         25.9703  -44.4812  -56.0857 C.3       10 UNK         0.0855 
     19 C          24.5779  -44.6617  -55.4236 C.2       10 UNK         0.5543 
     20 N          24.4181  -45.6930  -54.6067 N.am      10 UNK        -0.7343 
     21 O          23.6581  -43.8712  -55.6220 O.2       10 UNK        -0.5027 
     22 N          26.1448  -45.3147  -57.2847 N.am      10 UNK        -0.4495 
     23 C          25.4356  -45.2508  -58.4194 C.2       10 UNK         0.4903 
     24 O          24.4874  -44.4893  -58.6089 O.2       10 UNK        -0.4860 
     25 CA         25.8671  -46.1886  -59.5536 C.3       9 UNK         0.0227 
     26 CB         27.0389  -45.5728  -60.3381 C.3       9 UNK        -0.1964 
     27 N          26.2584  -47.5072  -59.0473 N.am      9 UNK        -0.4231 
     28 C          25.5644  -48.6341  -59.2533 C.2       9 UNK         0.5014 
     29 O          24.4979  -48.6846  -59.8685 O.2       9 UNK        -0.5270 
     30 CA         26.1691  -49.9393  -58.7124 C.3       8 UNK         0.0284 
     31 CB         27.2725  -50.4533  -59.6522 C.3       8 UNK        -0.1977 
     32 N          26.6978  -49.8349  -57.3518 N.am      8 UNK        -0.4342 
     33 C          25.9463  -49.7220  -56.2476 C.2       8 UNK         0.5039 
     34 O          24.7213  -49.5997  -56.2591 O.2       8 UNK        -0.5547 
     35 CA         26.6836  -49.7813  -54.9010 C.3       7 UNK         0.0281 
     36 CB         27.1051  -51.2232  -54.5698 C.3       7 UNK        -0.1963 
     37 N          27.8610  -48.9151  -54.9074 N.am      7 UNK        -0.4444 
     38 C          27.8544  -47.6363  -54.5110 C.2       7 UNK         0.5104 
     39 O          26.8755  -47.0842  -54.0085 O.2       7 UNK        -0.5100 
     40 CA         29.1397  -46.8180  -54.7352 C.3       6 UNK         0.0396 
     41 CB         29.9578  -46.7062  -53.4417 C.3       6 UNK        -0.1801 
     42 N          29.9844  -47.3428  -55.8093 N.am      6 UNK        -0.4747 
     43 C          29.6504  -47.3026  -57.1078 C.2       6 UNK         0.5012 
     44 O          28.5945  -46.8215  -57.5210 O.2       6 UNK        -0.5003 
     45 CA         30.6027  -47.9815  -58.1127 C.3       5 UNK         0.0782 
     46 C46        31.5983  -46.9745  -58.7399 C.3       11 UNK        -0.0868 
     47 S47        33.0075  -46.5322  -57.6603 S.3       11 UNK        -0.2515 
     48 C48        33.0371  -44.7151  -57.7727 C.3       11 UNK         0.0199 
     49 N          31.2696  -49.1695  -57.5686 N.am      5 UNK        -0.4607 
     50 C          30.6450  -50.2499  -57.0821 C.2       4 UNK         0.5031 
     51 O          29.4220  -50.3853  -57.0893 O.2       4 UNK        -0.5119 
     52 CA         31.5112  -51.3438  -56.4364 C.3       4 UNK         0.0263 
     53 CB         31.7767  -52.4724  -57.4447 C.3       4 UNK        -0.1967 
     54 N          32.7869  -50.8761  -55.8791 N.am      4 UNK        -0.4237 
     55 C          32.9243  -49.9476  -54.9216 C.2       3 UNK         0.4908 
     56 O          31.9907  -49.2860  -54.4619 O.2       3 UNK        -0.5102 
     57 CA         34.3599  -49.6859  -54.4372 C.3       3 UNK         0.0241 
     58 CB         35.0109  -48.5723  -55.2736 C.3       3 UNK        -0.1971 
     59 N          34.4065  -49.3007  -53.0268 N.am      3 UNK        -0.4139 
     60 C          34.0709  -50.0778  -51.9868 C.2       2 UNK         0.5016 
     61 O          33.7385  -51.2594  -52.0937 O.2       2 UNK        -0.5319 
     62 CA         34.1444  -49.4414  -50.5836 C.3       2 UNK         0.0286 
     63 CB         35.3227  -50.0270  -49.7870 C.3       2 UNK        -0.1963 
     64 N          34.2783  -47.9799  -50.6226 N.am      2 UNK        -0.4790 
     65 C          33.2580  -47.1326  -50.8129 C.2       1 UNK         0.5024 
     66 O          32.0804  -47.4879  -50.8952 O.2       1 UNK        -0.4888 
     67 H67        30.5565  -43.3235  -49.9222 H         1 UNK         0.0892 
     68 H68        30.3088  -44.1940  -48.4074 H         1 UNK         0.0892 
     69 H69        31.3370  -42.7587  -48.4440 H         1 UNK         0.0892 
     70 H70        31.9485  -44.4264  -51.2801 H         1 UNK         0.3107 
     71 H71        34.5171  -45.4492  -50.3854 H         1 UNK         0.0773 
     72 H72        33.1208  -45.4481  -53.1229 H         1 UNK         0.0680 
     73 H73        34.6884  -46.1475  -52.8554 H         1 UNK         0.0680 
     74 H74        33.9352  -41.6704  -53.3709 H         1 UNK         0.0650 
     75 H75        32.8794  -42.5122  -52.2678 H         1 UNK         0.0650 
     76 H76        34.2713  -43.8779  -55.5067 H         1 UNK         0.1397 
     77 H77        30.4190  -44.1083  -57.3495 H         1 UNK         0.1363 
     78 H78        30.8377  -42.3174  -53.4706 H         1 UNK         0.1355 
     79 H79        28.8292  -41.8680  -54.8391 H         1 UNK         0.0707 
     80 H80        28.5062  -43.5701  -54.6434 H         1 UNK         0.0707 
     81 H81        26.2231  -42.4136  -55.4000 H         1 UNK         0.1034 
     82 H82        25.6829  -42.5374  -57.0523 H         1 UNK         0.1034 
     83 H83        26.6915  -44.8659  -55.3675 H         1 UNK         0.0482 
     84 H84        23.5295  -45.8386  -54.1553 H         1 UNK         0.3460 
     85 H85        25.2021  -46.3076  -54.4017 H         1 UNK         0.3460 
     86 H86        26.9477  -45.9350  -57.2616 H         1 UNK         0.2989 
     87 H87        25.0236  -46.2788  -60.2412 H         1 UNK         0.0559 
     88 H88        27.9161  -45.4169  -59.7091 H         1 UNK         0.0848 
     89 H89        26.7616  -44.6022  -60.7515 H         1 UNK         0.0848 
     90 H90        27.3339  -46.2081  -61.1732 H         1 UNK         0.0848 
     91 H91        27.1136  -47.5422  -58.5008 H         1 UNK         0.3144 
     92 H92        25.3722  -50.6863  -58.6983 H         1 UNK         0.0727 
     93 H93        28.1174  -49.7663  -59.7002 H         1 UNK         0.0790 
     94 H94        26.8943  -50.5772  -60.6679 H         1 UNK         0.0790 
     95 H95        27.6500  -51.4231  -59.3270 H         1 UNK         0.0790 
     96 H96        27.7010  -49.9828  -57.2439 H         1 UNK         0.3215 
     97 H97        25.9884  -49.4539  -54.1245 H         1 UNK         0.0863 
     98 H98        27.5812  -51.2797  -53.5908 H         1 UNK         0.0808 
     99 H99        27.8031  -51.6271  -55.3038 H         1 UNK         0.0808 
    100 H100       26.2385  -51.8853  -54.5467 H         1 UNK         0.0808 
    101 H101       28.6970  -49.2796  -55.3462 H         1 UNK         0.3118 
    102 H102       28.8364  -45.8123  -55.0242 H         1 UNK         0.0546 
    103 H103       29.3632  -46.2701  -52.6381 H         1 UNK         0.0828 
    104 H104       30.8299  -46.0682  -53.5820 H         1 UNK         0.0828 
    105 H105       30.3057  -47.6806  -53.0971 H         1 UNK         0.0828 
    106 H106       30.8427  -47.8081  -55.5323 H         1 UNK         0.3005 
    107 H107       29.9628  -48.3378  -58.9225 H         1 UNK         0.1257 
    108 H108       31.0721  -46.0763  -59.0685 H         1 UNK         0.0775 
    109 H109       32.0178  -47.4087  -59.6487 H         1 UNK         0.0775 
    110 H110       34.0768  -44.3963  -57.8625 H         1 UNK         0.0840 
    111 H111       32.5482  -44.3725  -58.6856 H         1 UNK         0.0840 
    112 H112       32.2755  -49.1187  -57.5014 H         1 UNK         0.2987 
    113 H113       30.9312  -51.7566  -55.6083 H         1 UNK         0.0785 
    114 H114       30.8419  -52.8555  -57.8571 H         1 UNK         0.0798 
    115 H115       32.2882  -53.3133  -56.9757 H         1 UNK         0.0798 
    116 H116       32.3863  -52.1310  -58.2823 H         1 UNK         0.0798 
    117 H117       33.6160  -51.3468  -56.2130 H         1 UNK         0.3079 
    118 H118       34.9427  -50.6023  -54.5521 H         1 UNK         0.0794 
    119 H119       34.4788  -47.6256  -55.1667 H         1 UNK         0.0786 
    120 H120       35.0131  -48.8254  -56.3347 H         1 UNK         0.0786 
    121 H121       36.0480  -48.4084  -54.9804 H         1 UNK         0.0786 
    122 H122       34.6483  -48.3429  -52.8311 H         1 UNK         0.3032 
    123 H123       33.2183  -49.7003  -50.0645 H         1 UNK         0.1094 
    124 H124       36.2805  -49.8102  -50.2617 H         1 UNK         0.0794 
    125 H125       35.3520  -49.6300  -48.7720 H         1 UNK         0.0794 
    126 H126       35.2384  -51.1117  -49.7051 H         1 UNK         0.0794 
    127 H127       35.2164  -47.6103  -50.5476 H         1 UNK         0.3016 
@<TRIPOS>BOND
     1    1    2 1    
     2    1   67 1    
     3    1   68 1    
     4    1   69 1    
     5    2    3 2    
     6    2    4 am   BACKBONE|DICT|INTERRES
     7    4    5 1    
     8    4   70 1    
     9    5    6 1    
    10    5   65 1    
    11    5   71 1    
    12    6    7 1    
    13    6   72 1    
    14    6   73 1    
    15    7    8 1    
    16    8    9 1    
    17    8   74 1    
    18    8   75 1    
    19    9   10 ar   
    20    9   14 ar   
    21   10   11 ar   
    22   10   76 1    
    23   11   12 ar   
    24   11   48 1    
    25   12   13 ar   
    26   12   77 1    
    27   13   14 ar   
    28   13   15 1    
    29   14   78 1    
    30   15   16 1    
    31   15   79 1    
    32   15   80 1    
    33   16   17 1    
    34   17   18 1    
    35   17   81 1    
    36   17   82 1    
    37   18   19 1    
    38   18   22 1    
    39   18   83 1    
    40   19   20 am   BACKBONE|DICT|INTERRES
    41   19   21 2    
    42   20   84 1    
    43   20   85 1    
    44   22   23 am   BACKBONE|DICT|INTERRES
    45   22   86 1    
    46   23   24 2    
    47   23   25 1    
    48   25   26 1    
    49   25   27 1    
    50   25   87 1    
    51   26   88 1    
    52   26   89 1    
    53   26   90 1    
    54   27   28 am   BACKBONE|DICT|INTERRES
    55   27   91 1    
    56   28   29 2    
    57   28   30 1    
    58   30   31 1    
    59   30   32 1    
    60   30   92 1    
    61   31   93 1    
    62   31   94 1    
    63   31   95 1    
    64   32   33 am   BACKBONE|DICT|INTERRES
    65   32   96 1    
    66   33   34 2    
    67   33   35 1    
    68   35   36 1    
    69   35   37 1    
    70   35   97 1    
    71   36   98 1    
    72   36   99 1    
    73   36  100 1    
    74   37   38 am   BACKBONE|DICT|INTERRES
    75   37  101 1    
    76   38   39 2    
    77   38   40 1    
    78   40   41 1    
    79   40   42 1    
    80   40  102 1    
    81   41  103 1    
    82   41  104 1    
    83   41  105 1    
    84   42   43 am   BACKBONE|DICT|INTERRES
    85   42  106 1    
    86   43   44 2    
    87   43   45 1    
    88   45   46 1    
    89   45   49 1    
    90   45  107 1    
    91   46   47 1    
    92   46  108 1    
    93   46  109 1    
    94   47   48 1    
    95   48  110 1    
    96   48  111 1    
    97   49   50 am   BACKBONE|DICT|INTERRES
    98   49  112 1    
    99   50   51 2    
   100   50   52 1    
   101   52   53 1    
   102   52   54 1    
   103   52  113 1    
   104   53  114 1    
   105   53  115 1    
   106   53  116 1    
   107   54   55 am   BACKBONE|DICT|INTERRES
   108   54  117 1    
   109   55   56 2    
   110   55   57 1    
   111   57   58 1    
   112   57   59 1    
   113   57  118 1    
   114   58  119 1    
   115   58  120 1    
   116   58  121 1    
   117   59   60 am   BACKBONE|DICT|INTERRES
   118   59  122 1    
   119   60   61 2    
   120   60   62 1    
   121   62   63 1    
   122   62   64 1    
   123   62  123 1    
   124   63  124 1    
   125   63  125 1    
   126   63  126 1    
   127   64   65 am   BACKBONE|DICT|INTERRES
   128   64  127 1    
   129   65   66 2    
@<TRIPOS>SUBSTRUCTURE
     1 UNK         1 GROUP             0       ****    0 ROOT    
