@<TRIPOS>MOLECULE
3R134
127   129    1
SMALL
USER_CHARGES


@<TRIPOS>ATOM
      1 CA         33.1810  -46.8600  -59.5174 C.3       0 UNK        -0.1968 
      2 C          33.6778  -46.8953  -58.0796 C.2       0 UNK         0.4852 
      3 O          34.8746  -46.7250  -57.8452 O.2       0 UNK        -0.5359 
      4 N          32.7671  -47.1197  -57.1210 N.am      1 UNK        -0.4300 
      5 CA         33.0113  -47.1629  -55.6701 C.3       1 UNK         0.0863 
      6 C6         33.4702  -45.7855  -55.0900 C.3       11 UNK        -0.0953 
      7 S7         32.2122  -45.0427  -54.0026 S.3       11 UNK        -0.2369 
      8 C8         31.2451  -44.1476  -55.2551 C.3       11 UNK         0.0226 
      9 C9         29.9750  -43.5082  -54.7084 C.ar      11 UNK        -0.0699 
     10 C10        29.0877  -44.2377  -53.9112 C.ar      11 UNK        -0.0804 
     11 C11        27.8939  -43.6666  -53.4587 C.ar      11 UNK        -0.0871 
     12 C12        27.5870  -42.3505  -53.8182 C.ar      11 UNK        -0.1008 
     13 C13        28.4656  -41.6070  -54.6129 C.ar      11 UNK        -0.0735 
     14 C14        29.6600  -42.1897  -55.0476 C.ar      11 UNK        -0.0945 
     15 C15        28.1362  -40.1661  -54.9812 C.3       11 UNK         0.0169 
     16 S16        28.0811  -39.8906  -56.7821 S.3       11 UNK        -0.2669 
     17 C17        26.5626  -40.7866  -57.2718 C.3       11 UNK        -0.0850 
     18 CA         26.7124  -41.5809  -58.5979 C.3       10 UNK         0.0855 
     19 C          26.8376  -40.6348  -59.8311 C.2       10 UNK         0.5543 
     20 N          27.9551  -40.6177  -60.5477 N.am      10 UNK        -0.7343 
     21 O          25.8955  -39.9116  -60.1459 O.2       10 UNK        -0.5027 
     22 N          27.7377  -42.6322  -58.4818 N.am      10 UNK        -0.4495 
     23 C          27.8986  -43.6548  -59.3334 C.2       10 UNK         0.4903 
     24 O          27.1911  -43.8536  -60.3204 O.2       10 UNK        -0.4860 
     25 CA         29.0003  -44.6582  -58.9833 C.3       9 UNK         0.0227 
     26 CB         30.3685  -43.9791  -58.7613 C.3       9 UNK        -0.1964 
     27 N          28.5560  -45.4009  -57.8079 N.am      9 UNK        -0.4231 
     28 C          29.0477  -46.5662  -57.3759 C.2       9 UNK         0.5014 
     29 O          30.0497  -47.1086  -57.8499 O.2       9 UNK        -0.5270 
     30 CA         28.3281  -47.1870  -56.1640 C.3       8 UNK         0.0284 
     31 CB         26.7878  -47.1085  -56.2565 C.3       8 UNK        -0.1977 
     32 N          28.7713  -48.5514  -55.8673 N.am      8 UNK        -0.4342 
     33 C          28.6041  -49.6605  -56.6041 C.2       8 UNK         0.5039 
     34 O          27.9844  -49.7106  -57.6673 O.2       8 UNK        -0.5547 
     35 CA         29.2231  -50.9450  -56.0311 C.3       7 UNK         0.0281 
     36 CB         30.7460  -50.9503  -56.2405 C.3       7 UNK        -0.1963 
     37 N          28.9182  -51.0666  -54.6033 N.am      7 UNK        -0.4444 
     38 C          27.8695  -51.7394  -54.1065 C.2       7 UNK         0.5104 
     39 O          27.1358  -52.4645  -54.7788 O.2       7 UNK        -0.5100 
     40 CA         27.5644  -51.5493  -52.6072 C.3       6 UNK         0.0396 
     41 CB         28.2180  -52.6593  -51.7702 C.3       6 UNK        -0.1801 
     42 N          27.9827  -50.2282  -52.1212 N.am      6 UNK        -0.4747 
     43 C          27.3428  -49.0921  -52.4479 C.2       6 UNK         0.5012 
     44 O          26.2661  -49.0802  -53.0447 O.2       6 UNK        -0.5003 
     45 CA         28.0086  -47.7383  -52.1162 C.3       5 UNK         0.0782 
     46 C46        27.1308  -46.8830  -51.1703 C.3       11 UNK        -0.0868 
     47 S47        27.7040  -45.1524  -51.1077 S.3       11 UNK        -0.2515 
     48 C48        26.9205  -44.4797  -52.6136 C.3       11 UNK         0.0199 
     49 N          29.3954  -47.8412  -51.6456 N.am      5 UNK        -0.4607 
     50 C          30.4361  -48.2152  -52.3981 C.2       4 UNK         0.5031 
     51 O          30.3244  -48.5520  -53.5802 O.2       4 UNK        -0.5119 
     52 CA         31.8254  -48.2663  -51.7316 C.3       4 UNK         0.0263 
     53 CB         31.8004  -48.1394  -50.1913 C.3       4 UNK        -0.1967 
     54 N          32.5554  -49.4683  -52.1481 N.am      4 UNK        -0.4237 
     55 C          32.1500  -50.7400  -51.9954 C.2       3 UNK         0.4908 
     56 O          31.1482  -51.0607  -51.3549 O.2       3 UNK        -0.5102 
     57 CA         32.9626  -51.8163  -52.7348 C.3       3 UNK         0.0241 
     58 CB         32.1764  -53.1261  -52.9388 C.3       3 UNK        -0.1971 
     59 N          33.3799  -51.2950  -54.0351 N.am      3 UNK        -0.4139 
     60 C          34.6080  -51.3727  -54.5562 C.2       2 UNK         0.5016 
     61 O          35.5345  -52.0061  -54.0493 O.2       2 UNK        -0.5319 
     62 CA         34.8525  -50.5837  -55.8578 C.3       2 UNK         0.0286 
     63 CB         34.7070  -51.5087  -57.0771 C.3       2 UNK        -0.1963 
     64 N          33.9935  -49.4037  -56.0494 N.am      2 UNK        -0.4790 
     65 C          33.9016  -48.3493  -55.2214 C.2       1 UNK         0.5024 
     66 O          34.4549  -48.3162  -54.1208 O.2       1 UNK        -0.4888 
     67 H67        33.7233  -47.5875  -60.1205 H         1 UNK         0.0892 
     68 H68        32.1177  -47.0882  -59.5887 H         1 UNK         0.0892 
     69 H69        33.3444  -45.8715  -59.9458 H         1 UNK         0.0892 
     70 H70        31.7892  -47.2244  -57.3978 H         1 UNK         0.3107 
     71 H71        32.0348  -47.4064  -55.2508 H         1 UNK         0.0773 
     72 H72        34.3949  -45.8539  -54.5151 H         1 UNK         0.0680 
     73 H73        33.7025  -45.0744  -55.8839 H         1 UNK         0.0680 
     74 H74        30.9693  -44.8468  -56.0427 H         1 UNK         0.0650 
     75 H75        31.8869  -43.3949  -55.7159 H         1 UNK         0.0650 
     76 H76        29.3333  -45.2522  -53.6331 H         1 UNK         0.1397 
     77 H77        26.6633  -41.9024  -53.4776 H         1 UNK         0.1363 
     78 H78        30.3380  -41.6137  -55.6628 H         1 UNK         0.1355 
     79 H79        28.8982  -39.5143  -54.5519 H         1 UNK         0.0707 
     80 H80        27.1859  -39.8545  -54.5446 H         1 UNK         0.0707 
     81 H81        26.2729  -41.4722  -56.4743 H         1 UNK         0.1034 
     82 H82        25.7439  -40.0681  -57.3452 H         1 UNK         0.1034 
     83 H83        25.7671  -42.1064  -58.7474 H         1 UNK         0.0482 
     84 H84        28.7323  -41.2035  -60.2903 H         1 UNK         0.3460 
     85 H85        28.0232  -40.0055  -61.3451 H         1 UNK         0.3460 
     86 H86        28.3740  -42.5310  -57.7046 H         1 UNK         0.2989 
     87 H87        29.0929  -45.3576  -59.8172 H         1 UNK         0.0559 
     88 H88        30.6623  -43.4049  -59.6407 H         1 UNK         0.0848 
     89 H89        31.1542  -44.7130  -58.5855 H         1 UNK         0.0848 
     90 H90        30.3596  -43.2939  -57.9144 H         1 UNK         0.0848 
     91 H91        27.7277  -45.0343  -57.3587 H         1 UNK         0.3144 
     92 H92        28.6381  -46.5968  -55.3055 H         1 UNK         0.0727 
     93 H93        26.4330  -46.0783  -56.2181 H         1 UNK         0.0790 
     94 H94        26.3155  -47.6336  -55.4262 H         1 UNK         0.0790 
     95 H95        26.4154  -47.5513  -57.1811 H         1 UNK         0.0790 
     96 H96        29.3615  -48.6253  -55.0395 H         1 UNK         0.3215 
     97 H97        28.8054  -51.7943  -56.5765 H         1 UNK         0.0863 
     98 H98        31.2260  -50.1259  -55.7148 H         1 UNK         0.0808 
     99 H99        30.9918  -50.8490  -57.2986 H         1 UNK         0.0808 
    100 H100       31.1873  -51.8851  -55.8950 H         1 UNK         0.0808 
    101 H101       29.4381  -50.4695  -53.9728 H         1 UNK         0.3118 
    102 H102       26.4833  -51.6332  -52.4756 H         1 UNK         0.0546 
    103 H103       29.2934  -52.7132  -51.9312 H         1 UNK         0.0828 
    104 H104       27.8069  -53.6339  -52.0362 H         1 UNK         0.0828 
    105 H105       28.0427  -52.5137  -50.7044 H         1 UNK         0.0828 
    106 H106       28.8652  -50.1775  -51.6273 H         1 UNK         0.3005 
    107 H107       28.0426  -47.2219  -53.0760 H         1 UNK         0.1257 
    108 H108       27.1457  -47.2940  -50.1593 H         1 UNK         0.0775 
    109 H109       26.0835  -46.8861  -51.4803 H         1 UNK         0.0775 
    110 H110       26.5206  -45.2832  -53.2334 H         1 UNK         0.0840 
    111 H111       26.0635  -43.8744  -52.3141 H         1 UNK         0.0840 
    112 H112       29.5582  -47.5890  -50.6816 H         1 UNK         0.2987 
    113 H113       32.3845  -47.4176  -52.1268 H         1 UNK         0.0785 
    114 H114       31.4028  -47.1731  -49.8786 H         1 UNK         0.0798 
    115 H115       32.8069  -48.2125  -49.7791 H         1 UNK         0.0798 
    116 H116       31.1975  -48.9178  -49.7220 H         1 UNK         0.0798 
    117 H117       33.3819  -49.2897  -52.7104 H         1 UNK         0.3079 
    118 H118       33.8362  -52.0264  -52.1143 H         1 UNK         0.0794 
    119 H119       31.8803  -53.5599  -51.9828 H         1 UNK         0.0786 
    120 H120       32.7794  -53.8713  -53.4577 H         1 UNK         0.0786 
    121 H121       31.2692  -52.9649  -53.5222 H         1 UNK         0.0786 
    122 H122       32.6986  -50.7361  -54.5267 H         1 UNK         0.3032 
    123 H123       35.8844  -50.2274  -55.8194 H         1 UNK         0.1094 
    124 H124       35.3525  -52.3834  -56.9835 H         1 UNK         0.0794 
    125 H125       33.6843  -51.8700  -57.1911 H         1 UNK         0.0794 
    126 H126       34.9895  -50.9994  -57.9987 H         1 UNK         0.0794 
    127 H127       33.5106  -49.3410  -56.9341 H         1 UNK         0.3016 
@<TRIPOS>BOND
     1    1    2 1    
     2    1   67 1    
     3    1   68 1    
     4    1   69 1    
     5    2    3 2    
     6    2    4 am   BACKBONE|DICT|INTERRES
     7    4    5 1    
     8    4   70 1    
     9    5    6 1    
    10    5   65 1    
    11    5   71 1    
    12    6    7 1    
    13    6   72 1    
    14    6   73 1    
    15    7    8 1    
    16    8    9 1    
    17    8   74 1    
    18    8   75 1    
    19    9   10 ar   
    20    9   14 ar   
    21   10   11 ar   
    22   10   76 1    
    23   11   12 ar   
    24   11   48 1    
    25   12   13 ar   
    26   12   77 1    
    27   13   14 ar   
    28   13   15 1    
    29   14   78 1    
    30   15   16 1    
    31   15   79 1    
    32   15   80 1    
    33   16   17 1    
    34   17   18 1    
    35   17   81 1    
    36   17   82 1    
    37   18   19 1    
    38   18   22 1    
    39   18   83 1    
    40   19   20 am   BACKBONE|DICT|INTERRES
    41   19   21 2    
    42   20   84 1    
    43   20   85 1    
    44   22   23 am   BACKBONE|DICT|INTERRES
    45   22   86 1    
    46   23   24 2    
    47   23   25 1    
    48   25   26 1    
    49   25   27 1    
    50   25   87 1    
    51   26   88 1    
    52   26   89 1    
    53   26   90 1    
    54   27   28 am   BACKBONE|DICT|INTERRES
    55   27   91 1    
    56   28   29 2    
    57   28   30 1    
    58   30   31 1    
    59   30   32 1    
    60   30   92 1    
    61   31   93 1    
    62   31   94 1    
    63   31   95 1    
    64   32   33 am   BACKBONE|DICT|INTERRES
    65   32   96 1    
    66   33   34 2    
    67   33   35 1    
    68   35   36 1    
    69   35   37 1    
    70   35   97 1    
    71   36   98 1    
    72   36   99 1    
    73   36  100 1    
    74   37   38 am   BACKBONE|DICT|INTERRES
    75   37  101 1    
    76   38   39 2    
    77   38   40 1    
    78   40   41 1    
    79   40   42 1    
    80   40  102 1    
    81   41  103 1    
    82   41  104 1    
    83   41  105 1    
    84   42   43 am   BACKBONE|DICT|INTERRES
    85   42  106 1    
    86   43   44 2    
    87   43   45 1    
    88   45   46 1    
    89   45   49 1    
    90   45  107 1    
    91   46   47 1    
    92   46  108 1    
    93   46  109 1    
    94   47   48 1    
    95   48  110 1    
    96   48  111 1    
    97   49   50 am   BACKBONE|DICT|INTERRES
    98   49  112 1    
    99   50   51 2    
   100   50   52 1    
   101   52   53 1    
   102   52   54 1    
   103   52  113 1    
   104   53  114 1    
   105   53  115 1    
   106   53  116 1    
   107   54   55 am   BACKBONE|DICT|INTERRES
   108   54  117 1    
   109   55   56 2    
   110   55   57 1    
   111   57   58 1    
   112   57   59 1    
   113   57  118 1    
   114   58  119 1    
   115   58  120 1    
   116   58  121 1    
   117   59   60 am   BACKBONE|DICT|INTERRES
   118   59  122 1    
   119   60   61 2    
   120   60   62 1    
   121   62   63 1    
   122   62   64 1    
   123   62  123 1    
   124   63  124 1    
   125   63  125 1    
   126   63  126 1    
   127   64   65 am   BACKBONE|DICT|INTERRES
   128   64  127 1    
   129   65   66 2    
@<TRIPOS>SUBSTRUCTURE
     1 UNK         1 GROUP             0       ****    0 ROOT    
