@<TRIPOS>MOLECULE
3R134
127   129    1
SMALL
USER_CHARGES


@<TRIPOS>ATOM
      1 CA         33.4093  -46.2785  -51.5490 C.3       0 UNK        -0.1968 
      2 C          33.4716  -46.2598  -53.0683 C.2       0 UNK         0.4852 
      3 O          32.5132  -46.6824  -53.7142 O.2       0 UNK        -0.5359 
      4 N          34.5925  -45.7825  -53.6347 N.am      1 UNK        -0.4300 
      5 CA         34.9060  -45.6453  -55.0686 C.3       1 UNK         0.0863 
      6 C6         33.9246  -44.7240  -55.8439 C.3       11 UNK        -0.0953 
      7 S7         34.2394  -42.9472  -55.5698 S.3       11 UNK        -0.2369 
      8 C8         33.4114  -42.5934  -53.9785 C.3       11 UNK         0.0226 
      9 C9         31.9142  -42.8969  -53.9096 C.ar      11 UNK        -0.0699 
     10 C10        31.3370  -43.1183  -52.6555 C.ar      11 UNK        -0.0804 
     11 C11        29.9721  -43.3907  -52.5303 C.ar      11 UNK        -0.0871 
     12 C12        29.1761  -43.4547  -53.6781 C.ar      11 UNK        -0.1008 
     13 C13        29.7372  -43.2332  -54.9389 C.ar      11 UNK        -0.0735 
     14 C14        31.0987  -42.9376  -55.0471 C.ar      11 UNK        -0.0945 
     15 C15        28.8847  -43.3377  -56.1916 C.3       11 UNK         0.0169 
     16 S16        28.0148  -41.7830  -56.5458 S.3       11 UNK        -0.2669 
     17 C17        27.7552  -41.9180  -58.3492 C.3       11 UNK        -0.0850 
     18 CA         26.4756  -42.7104  -58.7252 C.3       10 UNK         0.0855 
     19 C          26.0824  -42.4756  -60.2133 C.2       10 UNK         0.5543 
     20 N          26.0298  -43.4968  -61.0607 N.am      10 UNK        -0.7343 
     21 O          25.8076  -41.3435  -60.6036 O.2       10 UNK        -0.5027 
     22 N          26.5998  -44.1341  -58.3708 N.am      10 UNK        -0.4495 
     23 C          25.5929  -44.9183  -57.9768 C.2       10 UNK         0.4903 
     24 O          24.4439  -44.5114  -57.8011 O.2       10 UNK        -0.4860 
     25 CA         25.8893  -46.4101  -57.7308 C.3       9 UNK         0.0227 
     26 CB         25.4150  -47.2641  -58.9224 C.3       9 UNK        -0.1964 
     27 N          27.2681  -46.7625  -57.3588 N.am      9 UNK        -0.4231 
     28 C          28.3990  -46.6890  -58.0767 C.2       9 UNK         0.5014 
     29 O          28.4891  -46.1076  -59.1585 O.2       9 UNK        -0.5270 
     30 CA         29.6351  -47.4049  -57.4974 C.3       8 UNK         0.0284 
     31 CB         30.4241  -46.4890  -56.5509 C.3       8 UNK        -0.1977 
     32 N          29.2903  -48.6466  -56.7987 N.am      8 UNK        -0.4342 
     33 C          28.8215  -49.7518  -57.3987 C.2       8 UNK         0.5039 
     34 O          28.7108  -49.8784  -58.6186 O.2       8 UNK        -0.5547 
     35 CA         28.3774  -50.9030  -56.4829 C.3       7 UNK         0.0281 
     36 CB         29.5647  -51.8065  -56.1070 C.3       7 UNK        -0.1963 
     37 N          27.7255  -50.3985  -55.2724 N.am      7 UNK        -0.4444 
     38 C          26.4484  -49.9920  -55.2217 C.2       7 UNK         0.5104 
     39 O          25.6633  -50.0808  -56.1655 O.2       7 UNK        -0.5100 
     40 CA         25.9579  -49.3725  -53.8997 C.3       6 UNK         0.0396 
     41 CB         25.3096  -50.4477  -53.0137 C.3       6 UNK        -0.1801 
     42 N          27.0132  -48.6947  -53.1421 N.am      6 UNK        -0.4747 
     43 C          27.6306  -47.5674  -53.5274 C.2       6 UNK         0.5012 
     44 O          27.3545  -46.9582  -54.5592 O.2       6 UNK        -0.5003 
     45 CA         28.7819  -47.0642  -52.6325 C.3       5 UNK         0.0782 
     46 C46        28.2157  -46.1365  -51.5321 C.3       11 UNK        -0.0868 
     47 S47        29.5265  -45.3092  -50.5738 S.3       11 UNK        -0.2515 
     48 C48        29.3652  -43.5894  -51.1489 C.3       11 UNK         0.0199 
     49 N          29.5799  -48.1629  -52.0693 N.am      5 UNK        -0.4607 
     50 C          30.2026  -49.1065  -52.7854 C.2       4 UNK         0.5031 
     51 O          30.1678  -49.1713  -54.0192 O.2       4 UNK        -0.5119 
     52 CA         30.9077  -50.2099  -51.9908 C.3       4 UNK         0.0263 
     53 CB         29.8771  -51.1974  -51.4076 C.3       4 UNK        -0.1967 
     54 N          31.8076  -50.8977  -52.9060 N.am      4 UNK        -0.4237 
     55 C          32.7894  -51.7505  -52.5937 C.2       3 UNK         0.4908 
     56 O          33.0470  -52.1154  -51.4460 O.2       3 UNK        -0.5102 
     57 CA         33.6371  -52.2844  -53.7659 C.3       3 UNK         0.0241 
     58 CB         33.0998  -53.6459  -54.2372 C.3       3 UNK        -0.1971 
     59 N          33.6889  -51.3646  -54.9090 N.am      3 UNK        -0.4139 
     60 C          34.2775  -50.1601  -54.8863 C.2       2 UNK         0.5016 
     61 O          34.9323  -49.7488  -53.9248 O.2       2 UNK        -0.5319 
     62 CA         34.0894  -49.2630  -56.1250 C.3       2 UNK         0.0286 
     63 CB         32.7852  -49.5510  -56.8958 C.3       2 UNK        -0.1963 
     64 N          34.0694  -47.8680  -55.6926 N.am      2 UNK        -0.4790 
     65 C          35.0860  -47.0060  -55.7762 C.2       1 UNK         0.5024 
     66 O          36.1401  -47.2461  -56.3676 O.2       1 UNK        -0.4888 
     67 H67        32.5478  -45.7065  -51.2060 H         1 UNK         0.0892 
     68 H68        33.3009  -47.3028  -51.1935 H         1 UNK         0.0892 
     69 H69        34.3036  -45.8516  -51.0959 H         1 UNK         0.0892 
     70 H70        35.3446  -45.4950  -53.0244 H         1 UNK         0.3107 
     71 H71        35.8904  -45.1750  -55.1016 H         1 UNK         0.0773 
     72 H72        34.0273  -44.8764  -56.9202 H         1 UNK         0.0680 
     73 H73        32.8863  -44.9638  -55.6189 H         1 UNK         0.0680 
     74 H74        33.5507  -41.5349  -53.7567 H         1 UNK         0.0650 
     75 H75        33.9362  -43.1371  -53.1928 H         1 UNK         0.0650 
     76 H76        31.9530  -43.0740  -51.7675 H         1 UNK         0.1397 
     77 H77        28.1200  -43.6712  -53.5951 H         1 UNK         0.1363 
     78 H78        31.5205  -42.7545  -56.0250 H         1 UNK         0.1355 
     79 H79        29.5097  -43.6098  -57.0425 H         1 UNK         0.0707 
     80 H80        28.1558  -44.1404  -56.0723 H         1 UNK         0.0707 
     81 H81        27.6918  -40.8949  -58.7256 H         1 UNK         0.1034 
     82 H82        28.6361  -42.3505  -58.8267 H         1 UNK         0.1034 
     83 H83        25.6555  -42.2842  -58.1440 H         1 UNK         0.0482 
     84 H84        26.2600  -44.4275  -60.7515 H         1 UNK         0.3460 
     85 H85        25.7684  -43.3313  -62.0200 H         1 UNK         0.3460 
     86 H86        27.4833  -44.5861  -58.5848 H         1 UNK         0.2989 
     87 H87        25.2863  -46.6961  -56.8675 H         1 UNK         0.0559 
     88 H88        24.3633  -47.0780  -59.1441 H         1 UNK         0.0848 
     89 H89        25.5170  -48.3285  -58.7085 H         1 UNK         0.0848 
     90 H90        25.9813  -47.0491  -59.8290 H         1 UNK         0.0848 
     91 H91        27.3555  -47.1191  -56.4092 H         1 UNK         0.3144 
     92 H92        30.2867  -47.6653  -58.3340 H         1 UNK         0.0727 
     93 H93        29.8204  -46.1562  -55.7067 H         1 UNK         0.0790 
     94 H94        30.7827  -45.6033  -57.0749 H         1 UNK         0.0790 
     95 H95        31.2995  -46.9962  -56.1477 H         1 UNK         0.0790 
     96 H96        29.4173  -48.6612  -55.7911 H         1 UNK         0.3215 
     97 H97        27.6607  -51.5113  -57.0396 H         1 UNK         0.0863 
     98 H98        29.2431  -52.6472  -55.4921 H         1 UNK         0.0808 
     99 H99        30.3349  -51.2675  -55.5587 H         1 UNK         0.0808 
    100 H100       30.0334  -52.2203  -57.0008 H         1 UNK         0.0808 
    101 H101       28.3200  -50.2336  -54.4712 H         1 UNK         0.3118 
    102 H102       25.1953  -48.6312  -54.1484 H         1 UNK         0.0546 
    103 H103       26.0274  -51.2116  -52.7120 H         1 UNK         0.0828 
    104 H104       24.5004  -50.9530  -53.5432 H         1 UNK         0.0828 
    105 H105       24.8802  -50.0133  -52.1108 H         1 UNK         0.0828 
    106 H106       27.3042  -49.1269  -52.2771 H         1 UNK         0.3005 
    107 H107       29.4498  -46.4794  -53.2703 H         1 UNK         0.1257 
    108 H108       27.5967  -46.7042  -50.8346 H         1 UNK         0.0775 
    109 H109       27.5567  -45.3807  -51.9631 H         1 UNK         0.0775 
    110 H110       28.3169  -43.2869  -51.1394 H         1 UNK         0.0840 
    111 H111       29.8679  -42.9363  -50.4337 H         1 UNK         0.0840 
    112 H112       29.6628  -48.1734  -51.0631 H         1 UNK         0.2987 
    113 H113       31.4930  -49.7526  -51.1904 H         1 UNK         0.0785 
    114 H114       29.1814  -50.6938  -50.7355 H         1 UNK         0.0798 
    115 H115       30.3603  -51.9855  -50.8302 H         1 UNK         0.0798 
    116 H116       29.2885  -51.6746  -52.1924 H         1 UNK         0.0798 
    117 H117       31.6843  -50.6113  -53.8687 H         1 UNK         0.3079 
    118 H118       34.6557  -52.4244  -53.3977 H         1 UNK         0.0794 
    119 H119       33.7314  -54.0749  -55.0153 H         1 UNK         0.0786 
    120 H120       32.0856  -53.5670  -54.6311 H         1 UNK         0.0786 
    121 H121       33.0740  -54.3607  -53.4133 H         1 UNK         0.0786 
    122 H122       33.1960  -51.6469  -55.7435 H         1 UNK         0.3032 
    123 H123       34.9358  -49.4440  -56.7912 H         1 UNK         0.1094 
    124 H124       31.9138  -49.4868  -56.2445 H         1 UNK         0.0794 
    125 H125       32.6421  -48.8343  -57.7048 H         1 UNK         0.0794 
    126 H126       32.7934  -50.5408  -57.3532 H         1 UNK         0.0794 
    127 H127       33.2956  -47.5881  -55.0902 H         1 UNK         0.3016 
@<TRIPOS>BOND
     1    1    2 1    
     2    1   67 1    
     3    1   68 1    
     4    1   69 1    
     5    2    3 2    
     6    2    4 am   BACKBONE|DICT|INTERRES
     7    4    5 1    
     8    4   70 1    
     9    5    6 1    
    10    5   65 1    
    11    5   71 1    
    12    6    7 1    
    13    6   72 1    
    14    6   73 1    
    15    7    8 1    
    16    8    9 1    
    17    8   74 1    
    18    8   75 1    
    19    9   10 ar   
    20    9   14 ar   
    21   10   11 ar   
    22   10   76 1    
    23   11   12 ar   
    24   11   48 1    
    25   12   13 ar   
    26   12   77 1    
    27   13   14 ar   
    28   13   15 1    
    29   14   78 1    
    30   15   16 1    
    31   15   79 1    
    32   15   80 1    
    33   16   17 1    
    34   17   18 1    
    35   17   81 1    
    36   17   82 1    
    37   18   19 1    
    38   18   22 1    
    39   18   83 1    
    40   19   20 am   BACKBONE|DICT|INTERRES
    41   19   21 2    
    42   20   84 1    
    43   20   85 1    
    44   22   23 am   BACKBONE|DICT|INTERRES
    45   22   86 1    
    46   23   24 2    
    47   23   25 1    
    48   25   26 1    
    49   25   27 1    
    50   25   87 1    
    51   26   88 1    
    52   26   89 1    
    53   26   90 1    
    54   27   28 am   BACKBONE|DICT|INTERRES
    55   27   91 1    
    56   28   29 2    
    57   28   30 1    
    58   30   31 1    
    59   30   32 1    
    60   30   92 1    
    61   31   93 1    
    62   31   94 1    
    63   31   95 1    
    64   32   33 am   BACKBONE|DICT|INTERRES
    65   32   96 1    
    66   33   34 2    
    67   33   35 1    
    68   35   36 1    
    69   35   37 1    
    70   35   97 1    
    71   36   98 1    
    72   36   99 1    
    73   36  100 1    
    74   37   38 am   BACKBONE|DICT|INTERRES
    75   37  101 1    
    76   38   39 2    
    77   38   40 1    
    78   40   41 1    
    79   40   42 1    
    80   40  102 1    
    81   41  103 1    
    82   41  104 1    
    83   41  105 1    
    84   42   43 am   BACKBONE|DICT|INTERRES
    85   42  106 1    
    86   43   44 2    
    87   43   45 1    
    88   45   46 1    
    89   45   49 1    
    90   45  107 1    
    91   46   47 1    
    92   46  108 1    
    93   46  109 1    
    94   47   48 1    
    95   48  110 1    
    96   48  111 1    
    97   49   50 am   BACKBONE|DICT|INTERRES
    98   49  112 1    
    99   50   51 2    
   100   50   52 1    
   101   52   53 1    
   102   52   54 1    
   103   52  113 1    
   104   53  114 1    
   105   53  115 1    
   106   53  116 1    
   107   54   55 am   BACKBONE|DICT|INTERRES
   108   54  117 1    
   109   55   56 2    
   110   55   57 1    
   111   57   58 1    
   112   57   59 1    
   113   57  118 1    
   114   58  119 1    
   115   58  120 1    
   116   58  121 1    
   117   59   60 am   BACKBONE|DICT|INTERRES
   118   59  122 1    
   119   60   61 2    
   120   60   62 1    
   121   62   63 1    
   122   62   64 1    
   123   62  123 1    
   124   63  124 1    
   125   63  125 1    
   126   63  126 1    
   127   64   65 am   BACKBONE|DICT|INTERRES
   128   64  127 1    
   129   65   66 2    
@<TRIPOS>SUBSTRUCTURE
     1 UNK         1 GROUP             0       ****    0 ROOT    
