@<TRIPOS>MOLECULE
3R134
127   129    1
SMALL
USER_CHARGES


@<TRIPOS>ATOM
      1 CA         37.4565  -45.6258  -54.4253 C.3       0 UNK        -0.1968 
      2 C          36.0804  -45.9023  -53.8416 C.2       0 UNK         0.4852 
      3 O          35.6638  -47.0595  -53.7816 O.2       0 UNK        -0.5359 
      4 N          35.3768  -44.8562  -53.3876 N.am      1 UNK        -0.4300 
      5 CA         33.9971  -44.8815  -52.8703 C.3       1 UNK         0.0863 
      6 C6         33.4832  -43.4532  -52.5640 C.3       11 UNK        -0.0953 
      7 S7         33.5080  -42.3804  -54.0406 S.3       11 UNK        -0.2369 
      8 C8         31.7333  -42.1734  -54.3917 C.3       11 UNK         0.0226 
      9 C9         31.0809  -43.4608  -54.8763 C.ar      11 UNK        -0.0699 
     10 C10        30.2572  -44.2008  -54.0231 C.ar      11 UNK        -0.0804 
     11 C11        29.6220  -45.3613  -54.4756 C.ar      11 UNK        -0.0871 
     12 C12        29.8251  -45.7859  -55.7927 C.ar      11 UNK        -0.1008 
     13 C13        30.6382  -45.0487  -56.6591 C.ar      11 UNK        -0.0735 
     14 C14        31.2687  -43.8909  -56.1928 C.ar      11 UNK        -0.0945 
     15 C15        30.8124  -45.4851  -58.1083 C.3       11 UNK         0.0169 
     16 S16        29.2645  -45.3756  -59.0681 S.3       11 UNK        -0.2669 
     17 C17        28.7444  -43.6437  -58.7897 C.3       11 UNK        -0.0850 
     18 CA         27.6467  -43.5323  -57.6903 C.3       10 UNK         0.0855 
     19 C          27.3345  -42.0643  -57.2662 C.2       10 UNK         0.5543 
     20 N          26.1517  -41.7809  -56.7317 N.am      10 UNK        -0.7343 
     21 O          28.1745  -41.1765  -57.3954 O.2       10 UNK        -0.5027 
     22 N          26.4608  -44.3572  -57.9834 N.am      10 UNK        -0.4495 
     23 C          25.5536  -44.1339  -58.9439 C.2       10 UNK         0.4903 
     24 O          25.6170  -43.1976  -59.7417 O.2       10 UNK        -0.4860 
     25 CA         24.3665  -45.1142  -59.0487 C.3       9 UNK         0.0227 
     26 CB         24.4507  -45.9166  -60.3595 C.3       9 UNK        -0.1964 
     27 N          24.2306  -46.0570  -57.9317 N.am      9 UNK        -0.4231 
     28 C          23.9607  -45.7532  -56.6533 C.2       9 UNK         0.5014 
     29 O          23.8134  -44.5994  -56.2476 O.2       9 UNK        -0.5270 
     30 CA         23.8331  -46.9248  -55.6558 C.3       8 UNK         0.0284 
     31 CB         22.4325  -46.9447  -55.0176 C.3       8 UNK        -0.1977 
     32 N          24.1016  -48.2423  -56.2480 N.am      8 UNK        -0.4342 
     33 C          25.3188  -48.7318  -56.5133 C.2       8 UNK         0.5039 
     34 O          26.3716  -48.1314  -56.2735 O.2       8 UNK        -0.5547 
     35 CA         25.3614  -50.1029  -57.2007 C.3       7 UNK         0.0281 
     36 CB         24.9917  -49.9925  -58.6918 C.3       7 UNK        -0.1963 
     37 N          26.7154  -50.6188  -57.0677 N.am      7 UNK        -0.4444 
     38 C          27.0870  -51.9021  -57.0060 C.2       7 UNK         0.5104 
     39 O          26.3157  -52.8493  -57.1616 O.2       7 UNK        -0.5100 
     40 CA         28.5742  -52.1735  -56.7012 C.3       6 UNK         0.0396 
     41 CB         29.3391  -52.4994  -57.9934 C.3       6 UNK        -0.1801 
     42 N          29.2202  -51.0384  -56.0349 N.am      6 UNK        -0.4747 
     43 C          29.0017  -50.6637  -54.7678 C.2       6 UNK         0.5012 
     44 O          28.3658  -51.3477  -53.9635 O.2       6 UNK        -0.5003 
     45 CA         29.5504  -49.2798  -54.3536 C.3       5 UNK         0.0782 
     46 C46        29.0903  -48.8715  -52.9309 C.3       11 UNK        -0.0868 
     47 S47        29.6407  -47.2097  -52.4274 S.3       11 UNK        -0.2515 
     48 C48        28.6947  -46.1267  -53.5429 C.3       11 UNK         0.0199 
     49 N          31.0036  -49.1645  -54.5296 N.am      5 UNK        -0.4607 
     50 C          31.6431  -49.0438  -55.7002 C.2       4 UNK         0.5031 
     51 O          31.0592  -49.0458  -56.7852 O.2       4 UNK        -0.5119 
     52 CA         33.1763  -48.8889  -55.6889 C.3       4 UNK         0.0263 
     53 CB         33.5767  -47.5176  -56.2597 C.3       4 UNK        -0.1967 
     54 N          33.8284  -49.0694  -54.3859 N.am      4 UNK        -0.4237 
     55 C          33.9194  -50.2268  -53.7146 C.2       3 UNK         0.4908 
     56 O          33.3751  -51.2673  -54.0844 O.2       3 UNK        -0.5102 
     57 CA         34.7576  -50.2521  -52.4255 C.3       3 UNK         0.0241 
     58 CB         36.1741  -50.7715  -52.7256 C.3       3 UNK        -0.1971 
     59 N          34.8624  -48.9416  -51.7745 N.am      3 UNK        -0.4139 
     60 C          34.5595  -48.6971  -50.4901 C.2       2 UNK         0.5016 
     61 O          34.1067  -49.5457  -49.7204 O.2       2 UNK        -0.5319 
     62 CA         34.8220  -47.2768  -49.9472 C.3       2 UNK         0.0286 
     63 CB         36.1472  -47.2387  -49.1684 C.3       2 UNK        -0.1963 
     64 N          34.8551  -46.2499  -50.9906 N.am      2 UNK        -0.4790 
     65 C          33.7759  -45.8077  -51.6510 C.2       1 UNK         0.5024 
     66 O          32.6298  -46.1230  -51.3384 O.2       1 UNK        -0.4888 
     67 H67        38.2179  -46.1610  -53.8589 H         1 UNK         0.0892 
     68 H68        37.4977  -45.9675  -55.4590 H         1 UNK         0.0892 
     69 H69        37.7018  -44.5642  -54.4081 H         1 UNK         0.0892 
     70 H70        35.7780  -43.9319  -53.4625 H         1 UNK         0.3107 
     71 H71        33.3734  -45.2930  -53.6667 H         1 UNK         0.0773 
     72 H72        34.0969  -42.9849  -51.7923 H         1 UNK         0.0680 
     73 H73        32.4683  -43.4815  -52.1633 H         1 UNK         0.0680 
     74 H74        31.6166  -41.4039  -55.1563 H         1 UNK         0.0650 
     75 H75        31.2299  -41.7926  -53.5018 H         1 UNK         0.0650 
     76 H76        30.1000  -43.8696  -53.0057 H         1 UNK         0.1397 
     77 H77        29.3250  -46.6677  -56.1665 H         1 UNK         0.1363 
     78 H78        31.8955  -43.3119  -56.8572 H         1 UNK         0.1355 
     79 H79        31.5814  -44.8911  -58.6044 H         1 UNK         0.0707 
     80 H80        31.1586  -46.5187  -58.1312 H         1 UNK         0.0707 
     81 H81        29.6219  -43.0500  -58.5269 H         1 UNK         0.1034 
     82 H82        28.3793  -43.2334  -59.7322 H         1 UNK         0.1034 
     83 H83        28.0597  -43.9638  -56.7808 H         1 UNK         0.0482 
     84 H84        25.9487  -40.8349  -56.4488 H         1 UNK         0.3460 
     85 H85        25.4592  -42.5062  -56.6141 H         1 UNK         0.3460 
     86 H86        26.3262  -45.1561  -57.3816 H         1 UNK         0.2989 
     87 H87        23.4577  -44.5091  -59.0771 H         1 UNK         0.0559 
     88 H88        25.3366  -46.5536  -60.3857 H         1 UNK         0.0848 
     89 H89        24.5034  -45.2526  -61.2242 H         1 UNK         0.0848 
     90 H90        23.5741  -46.5503  -60.4973 H         1 UNK         0.0848 
     91 H91        24.3488  -47.0332  -58.1561 H         1 UNK         0.3144 
     92 H92        24.5635  -46.7481  -54.8628 H         1 UNK         0.0727 
     93 H93        22.3498  -47.7297  -54.2651 H         1 UNK         0.0790 
     94 H94        21.6511  -47.1065  -55.7618 H         1 UNK         0.0790 
     95 H95        22.2147  -45.9993  -54.5182 H         1 UNK         0.0790 
     96 H96        23.2920  -48.8012  -56.4810 H         1 UNK         0.3215 
     97 H97        24.6651  -50.7719  -56.6898 H         1 UNK         0.0863 
     98 H98        25.0462  -50.9635  -59.1849 H         1 UNK         0.0808 
     99 H99        25.6590  -49.3123  -59.2233 H         1 UNK         0.0808 
    100 H100       23.9735  -49.6244  -58.8230 H         1 UNK         0.0808 
    101 H101       27.4013  -49.8984  -56.8774 H         1 UNK         0.3118 
    102 H102       28.6275  -53.0415  -56.0408 H         1 UNK         0.0546 
    103 H103       29.3266  -51.6623  -58.6927 H         1 UNK         0.0828 
    104 H104       28.8969  -53.3569  -58.5026 H         1 UNK         0.0828 
    105 H105       30.3801  -52.7481  -57.7861 H         1 UNK         0.0828 
    106 H106       29.8014  -50.4284  -56.6067 H         1 UNK         0.3005 
    107 H107       29.0813  -48.5822  -55.0473 H         1 UNK         0.1257 
    108 H108       29.4676  -49.5815  -52.1925 H         1 UNK         0.0775 
    109 H109       28.0015  -48.9028  -52.8536 H         1 UNK         0.0775 
    110 H110       27.9589  -46.6968  -54.1125 H         1 UNK         0.0840 
    111 H111       28.1202  -45.4216  -52.9403 H         1 UNK         0.0840 
    112 H112       31.5532  -49.1554  -53.6836 H         1 UNK         0.2987 
    113 H113       33.5701  -49.6573  -56.3574 H         1 UNK         0.0785 
    114 H114       34.6598  -47.4114  -56.3200 H         1 UNK         0.0798 
    115 H115       33.1887  -46.6993  -55.6521 H         1 UNK         0.0798 
    116 H116       33.1905  -47.3860  -57.2703 H         1 UNK         0.0798 
    117 H117       34.3795  -48.2773  -54.0613 H         1 UNK         0.3079 
    118 H118       34.2711  -50.9666  -51.7582 H         1 UNK         0.0794 
    119 H119       36.1402  -51.7492  -53.2086 H         1 UNK         0.0786 
    120 H120       36.7560  -50.8829  -51.8105 H         1 UNK         0.0786 
    121 H121       36.7177  -50.0964  -53.3883 H         1 UNK         0.0786 
    122 H122       35.2241  -48.1803  -52.3441 H         1 UNK         0.3032 
    123 H123       34.0105  -47.0398  -49.2548 H         1 UNK         0.1094 
    124 H124       36.3136  -46.2614  -48.7148 H         1 UNK         0.0794 
    125 H125       36.1462  -47.9723  -48.3608 H         1 UNK         0.0794 
    126 H126       37.0003  -47.4625  -49.8104 H         1 UNK         0.0794 
    127 H127       35.7641  -45.9418  -51.3047 H         1 UNK         0.3016 
@<TRIPOS>BOND
     1    1    2 1    
     2    1   67 1    
     3    1   68 1    
     4    1   69 1    
     5    2    3 2    
     6    2    4 am   BACKBONE|DICT|INTERRES
     7    4    5 1    
     8    4   70 1    
     9    5    6 1    
    10    5   65 1    
    11    5   71 1    
    12    6    7 1    
    13    6   72 1    
    14    6   73 1    
    15    7    8 1    
    16    8    9 1    
    17    8   74 1    
    18    8   75 1    
    19    9   10 ar   
    20    9   14 ar   
    21   10   11 ar   
    22   10   76 1    
    23   11   12 ar   
    24   11   48 1    
    25   12   13 ar   
    26   12   77 1    
    27   13   14 ar   
    28   13   15 1    
    29   14   78 1    
    30   15   16 1    
    31   15   79 1    
    32   15   80 1    
    33   16   17 1    
    34   17   18 1    
    35   17   81 1    
    36   17   82 1    
    37   18   19 1    
    38   18   22 1    
    39   18   83 1    
    40   19   20 am   BACKBONE|DICT|INTERRES
    41   19   21 2    
    42   20   84 1    
    43   20   85 1    
    44   22   23 am   BACKBONE|DICT|INTERRES
    45   22   86 1    
    46   23   24 2    
    47   23   25 1    
    48   25   26 1    
    49   25   27 1    
    50   25   87 1    
    51   26   88 1    
    52   26   89 1    
    53   26   90 1    
    54   27   28 am   BACKBONE|DICT|INTERRES
    55   27   91 1    
    56   28   29 2    
    57   28   30 1    
    58   30   31 1    
    59   30   32 1    
    60   30   92 1    
    61   31   93 1    
    62   31   94 1    
    63   31   95 1    
    64   32   33 am   BACKBONE|DICT|INTERRES
    65   32   96 1    
    66   33   34 2    
    67   33   35 1    
    68   35   36 1    
    69   35   37 1    
    70   35   97 1    
    71   36   98 1    
    72   36   99 1    
    73   36  100 1    
    74   37   38 am   BACKBONE|DICT|INTERRES
    75   37  101 1    
    76   38   39 2    
    77   38   40 1    
    78   40   41 1    
    79   40   42 1    
    80   40  102 1    
    81   41  103 1    
    82   41  104 1    
    83   41  105 1    
    84   42   43 am   BACKBONE|DICT|INTERRES
    85   42  106 1    
    86   43   44 2    
    87   43   45 1    
    88   45   46 1    
    89   45   49 1    
    90   45  107 1    
    91   46   47 1    
    92   46  108 1    
    93   46  109 1    
    94   47   48 1    
    95   48  110 1    
    96   48  111 1    
    97   49   50 am   BACKBONE|DICT|INTERRES
    98   49  112 1    
    99   50   51 2    
   100   50   52 1    
   101   52   53 1    
   102   52   54 1    
   103   52  113 1    
   104   53  114 1    
   105   53  115 1    
   106   53  116 1    
   107   54   55 am   BACKBONE|DICT|INTERRES
   108   54  117 1    
   109   55   56 2    
   110   55   57 1    
   111   57   58 1    
   112   57   59 1    
   113   57  118 1    
   114   58  119 1    
   115   58  120 1    
   116   58  121 1    
   117   59   60 am   BACKBONE|DICT|INTERRES
   118   59  122 1    
   119   60   61 2    
   120   60   62 1    
   121   62   63 1    
   122   62   64 1    
   123   62  123 1    
   124   63  124 1    
   125   63  125 1    
   126   63  126 1    
   127   64   65 am   BACKBONE|DICT|INTERRES
   128   64  127 1    
   129   65   66 2    
@<TRIPOS>SUBSTRUCTURE
     1 UNK         1 GROUP             0       ****    0 ROOT    
