@<TRIPOS>MOLECULE
3R134
127   129    1
SMALL
USER_CHARGES


@<TRIPOS>ATOM
      1 CA         35.4844  -47.0704  -55.3706 C.3       0 UNK        -0.1968 
      2 C          36.2917  -46.2192  -54.3933 C.2       0 UNK         0.4852 
      3 O          37.5003  -46.4192  -54.2855 O.2       0 UNK        -0.5359 
      4 N          35.6956  -45.2585  -53.6714 N.am      1 UNK        -0.4300 
      5 CA         34.2665  -44.9338  -53.6089 C.3       1 UNK         0.0863 
      6 C6         34.0210  -43.5651  -52.9214 C.3       11 UNK        -0.0953 
      7 S7         34.3180  -42.1913  -54.0848 S.3       11 UNK        -0.2369 
      8 C8         32.6242  -41.6006  -54.4274 C.3       11 UNK         0.0226 
      9 C9         31.7000  -42.7167  -54.8983 C.ar      11 UNK        -0.0699 
     10 C10        30.7311  -43.2353  -54.0347 C.ar      11 UNK        -0.0804 
     11 C11        29.9144  -44.2951  -54.4349 C.ar      11 UNK        -0.0871 
     12 C12        30.0655  -44.8335  -55.7167 C.ar      11 UNK        -0.1008 
     13 C13        31.0003  -44.2925  -56.6093 C.ar      11 UNK        -0.0735 
     14 C14        31.8183  -43.2382  -56.1895 C.ar      11 UNK        -0.0945 
     15 C15        31.1477  -44.8440  -58.0238 C.3       11 UNK         0.0169 
     16 S16        29.5589  -45.0308  -58.8978 S.3       11 UNK        -0.2669 
     17 C17        28.9941  -43.2993  -59.0453 C.3       11 UNK        -0.0850 
     18 CA         28.0100  -42.8659  -57.9238 C.3       10 UNK         0.0855 
     19 C          27.5684  -41.3854  -58.1163 C.2       10 UNK         0.5543 
     20 N          26.2860  -41.0887  -58.2892 N.am      10 UNK        -0.7343 
     21 O          28.4073  -40.4881  -58.1077 O.2       10 UNK        -0.5027 
     22 N          26.9064  -43.8277  -57.7526 N.am      10 UNK        -0.4495 
     23 C          26.1734  -43.9610  -56.6399 C.2       10 UNK         0.4903 
     24 O          26.3227  -43.2699  -55.6319 O.2       10 UNK        -0.4860 
     25 CA         25.0729  -45.0389  -56.6441 C.3       9 UNK         0.0227 
     26 CB         23.7027  -44.3997  -56.9246 C.3       9 UNK        -0.1964 
     27 N          25.2955  -46.1375  -57.5924 N.am      9 UNK        -0.4231 
     28 C          26.2556  -47.0637  -57.4700 C.2       9 UNK         0.5014 
     29 O          27.1043  -47.0573  -56.5805 O.2       9 UNK        -0.5270 
     30 CA         26.2724  -48.1741  -58.5247 C.3       8 UNK         0.0284 
     31 CB         27.0228  -47.7265  -59.7919 C.3       8 UNK        -0.1977 
     32 N          26.9087  -49.3704  -57.9732 N.am      8 UNK        -0.4342 
     33 C          26.6276  -50.6234  -58.3527 C.2       8 UNK         0.5039 
     34 O          25.7827  -50.9037  -59.2047 O.2       8 UNK        -0.5547 
     35 CA         27.4099  -51.7640  -57.6864 C.3       7 UNK         0.0281 
     36 CB         28.7833  -51.9379  -58.3574 C.3       7 UNK        -0.1963 
     37 N          27.5927  -51.5423  -56.2516 N.am      7 UNK        -0.4444 
     38 C          26.8392  -52.0975  -55.2913 C.2       7 UNK         0.5104 
     39 O          25.8812  -52.8375  -55.5183 O.2       7 UNK        -0.5100 
     40 CA         27.2218  -51.8129  -53.8245 C.3       6 UNK         0.0396 
     41 CB         28.0021  -53.0003  -53.2381 C.3       6 UNK        -0.1801 
     42 N          28.0182  -50.5967  -53.6589 N.am      6 UNK        -0.4747 
     43 C          27.5304  -49.3506  -53.7345 C.2       6 UNK         0.5012 
     44 O          26.3293  -49.0977  -53.8323 O.2       6 UNK        -0.5003 
     45 CA         28.5525  -48.1939  -53.7247 C.3       5 UNK         0.0782 
     46 C46        28.5286  -47.4520  -52.3663 C.3       11 UNK        -0.0868 
     47 S47        29.6421  -46.0112  -52.3014 S.3       11 UNK        -0.2515 
     48 C48        28.8733  -44.8503  -53.4754 C.3       11 UNK         0.0199 
     49 N          29.9054  -48.5872  -54.1481 N.am      5 UNK        -0.4607 
     50 C          30.2119  -49.0581  -55.3667 C.2       4 UNK         0.5031 
     51 O          29.3680  -49.2940  -56.2313 O.2       4 UNK        -0.5119 
     52 CA         31.6845  -49.3476  -55.6863 C.3       4 UNK         0.0263 
     53 CB         32.2444  -48.2683  -56.6241 C.3       4 UNK        -0.1967 
     54 N          32.5198  -49.4272  -54.4873 N.am      4 UNK        -0.4237 
     55 C          32.8077  -50.5649  -53.8390 C.2       3 UNK         0.4908 
     56 O          32.3717  -51.6671  -54.1730 O.2       3 UNK        -0.5102 
     57 CA         33.7521  -50.4790  -52.6242 C.3       3 UNK         0.0241 
     58 CB         35.1820  -50.8713  -53.0320 C.3       3 UNK        -0.1971 
     59 N          33.7836  -49.1617  -51.9851 N.am      3 UNK        -0.4139 
     60 C          32.7752  -48.6351  -51.2783 C.2       2 UNK         0.5016 
     61 O          31.7130  -49.2181  -51.0597 O.2       2 UNK        -0.5319 
     62 CA         32.9738  -47.2006  -50.7557 C.3       2 UNK         0.0286 
     63 CB         33.6287  -47.2246  -49.3653 C.3       2 UNK        -0.1963 
     64 N          33.7390  -46.3034  -51.6368 N.am      2 UNK        -0.4790 
     65 C          33.4700  -46.0605  -52.9296 C.2       1 UNK         0.5024 
     66 O          32.6648  -46.7081  -53.5959 O.2       1 UNK        -0.4888 
     67 H67        34.9658  -47.8693  -54.8440 H         1 UNK         0.0892 
     68 H68        34.7561  -46.4792  -55.9234 H         1 UNK         0.0892 
     69 H69        36.1456  -47.5327  -56.1032 H         1 UNK         0.0892 
     70 H70        36.2809  -44.7025  -53.0650 H         1 UNK         0.3107 
     71 H71        33.8823  -44.8636  -54.6282 H         1 UNK         0.0773 
     72 H72        34.6743  -43.4373  -52.0567 H         1 UNK         0.0680 
     73 H73        33.0067  -43.4833  -52.5289 H         1 UNK         0.0680 
     74 H74        32.6691  -40.8210  -55.1890 H         1 UNK         0.0650 
     75 H75        32.2274  -41.1262  -53.5285 H         1 UNK         0.0650 
     76 H76        30.6251  -42.8299  -53.0378 H         1 UNK         0.1397 
     77 H77        29.4377  -45.6571  -56.0308 H         1 UNK         0.1363 
     78 H78        32.5600  -42.8281  -56.8611 H         1 UNK         0.1355 
     79 H79        31.6343  -45.8166  -57.9743 H         1 UNK         0.0707 
     80 H80        31.8011  -44.2082  -58.6233 H         1 UNK         0.0707 
     81 H81        28.5206  -43.1884  -60.0224 H         1 UNK         0.1034 
     82 H82        29.8666  -42.6432  -59.0607 H         1 UNK         0.1034 
     83 H83        28.5719  -42.8657  -56.9893 H         1 UNK         0.0482 
     84 H84        26.0118  -40.1265  -58.4107 H         1 UNK         0.3460 
     85 H85        25.5917  -41.8179  -58.2925 H         1 UNK         0.3460 
     86 H86        26.7310  -44.4475  -58.5283 H         1 UNK         0.2989 
     87 H87        25.0443  -45.4699  -55.6408 H         1 UNK         0.0559 
     88 H88        23.6510  -43.9744  -57.9276 H         1 UNK         0.0848 
     89 H89        23.4954  -43.5941  -56.2186 H         1 UNK         0.0848 
     90 H90        22.8967  -45.1270  -56.8252 H         1 UNK         0.0848 
     91 H91        24.6445  -46.2113  -58.3614 H         1 UNK         0.3144 
     92 H92        25.2356  -48.4026  -58.7814 H         1 UNK         0.0727 
     93 H93        28.0800  -47.5543  -59.5877 H         1 UNK         0.0790 
     94 H94        26.6104  -46.8003  -60.1938 H         1 UNK         0.0790 
     95 H95        26.9549  -48.4786  -60.5781 H         1 UNK         0.0790 
     96 H96        27.6119  -49.1937  -57.2581 H         1 UNK         0.3215 
     97 H97        26.8479  -52.6868  -57.8477 H         1 UNK         0.0863 
     98 H98        29.3328  -52.7736  -57.9239 H         1 UNK         0.0808 
     99 H99        29.4017  -51.0448  -58.2618 H         1 UNK         0.0808 
    100 H100       28.6713  -52.1419  -59.4232 H         1 UNK         0.0808 
    101 H101       28.3186  -50.8812  -55.9916 H         1 UNK         0.3118 
    102 H102       26.2953  -51.7019  -53.2570 H         1 UNK         0.0546 
    103 H103       28.9480  -53.1594  -53.7579 H         1 UNK         0.0828 
    104 H104       27.4269  -53.9238  -53.3191 H         1 UNK         0.0828 
    105 H105       28.2206  -52.8493  -52.1808 H         1 UNK         0.0828 
    106 H106       29.0178  -50.7106  -53.5645 H         1 UNK         0.3005 
    107 H107       28.2010  -47.4961  -54.4794 H         1 UNK         0.1257 
    108 H108       28.8182  -48.1306  -51.5615 H         1 UNK         0.0775 
    109 H109       27.5190  -47.1097  -52.1298 H         1 UNK         0.0775 
    110 H110       28.0611  -45.3188  -54.0313 H         1 UNK         0.0840 
    111 H111       28.4132  -44.0344  -52.9162 H         1 UNK         0.0840 
    112 H112       30.6518  -48.3852  -53.4973 H         1 UNK         0.2987 
    113 H113       31.7172  -50.2996  -56.2207 H         1 UNK         0.0785 
    114 H114       31.6540  -48.2079  -57.5395 H         1 UNK         0.0798 
    115 H115       33.2706  -48.4893  -56.9164 H         1 UNK         0.0798 
    116 H116       32.2280  -47.2826  -56.1581 H         1 UNK         0.0798 
    117 H117       32.8329  -48.5388  -54.1062 H         1 UNK         0.3079 
    118 H118       33.3973  -51.2026  -51.8868 H         1 UNK         0.0794 
    119 H119       35.8478  -50.8987  -52.1692 H         1 UNK         0.0786 
    120 H120       35.6018  -50.1755  -53.7595 H         1 UNK         0.0786 
    121 H121       35.2005  -51.8643  -53.4836 H         1 UNK         0.0786 
    122 H122       34.6202  -48.6094  -52.1039 H         1 UNK         0.3032 
    123 H123       31.9776  -46.7672  -50.6490 H         1 UNK         0.1094 
    124 H124       34.6518  -47.6004  -49.4066 H         1 UNK         0.0794 
    125 H125       33.6528  -46.2299  -48.9197 H         1 UNK         0.0794 
    126 H126       33.0722  -47.8680  -48.6820 H         1 UNK         0.0794 
    127 H127       34.4523  -45.7461  -51.1891 H         1 UNK         0.3016 
@<TRIPOS>BOND
     1    1    2 1    
     2    1   67 1    
     3    1   68 1    
     4    1   69 1    
     5    2    3 2    
     6    2    4 am   BACKBONE|DICT|INTERRES
     7    4    5 1    
     8    4   70 1    
     9    5    6 1    
    10    5   65 1    
    11    5   71 1    
    12    6    7 1    
    13    6   72 1    
    14    6   73 1    
    15    7    8 1    
    16    8    9 1    
    17    8   74 1    
    18    8   75 1    
    19    9   10 ar   
    20    9   14 ar   
    21   10   11 ar   
    22   10   76 1    
    23   11   12 ar   
    24   11   48 1    
    25   12   13 ar   
    26   12   77 1    
    27   13   14 ar   
    28   13   15 1    
    29   14   78 1    
    30   15   16 1    
    31   15   79 1    
    32   15   80 1    
    33   16   17 1    
    34   17   18 1    
    35   17   81 1    
    36   17   82 1    
    37   18   19 1    
    38   18   22 1    
    39   18   83 1    
    40   19   20 am   BACKBONE|DICT|INTERRES
    41   19   21 2    
    42   20   84 1    
    43   20   85 1    
    44   22   23 am   BACKBONE|DICT|INTERRES
    45   22   86 1    
    46   23   24 2    
    47   23   25 1    
    48   25   26 1    
    49   25   27 1    
    50   25   87 1    
    51   26   88 1    
    52   26   89 1    
    53   26   90 1    
    54   27   28 am   BACKBONE|DICT|INTERRES
    55   27   91 1    
    56   28   29 2    
    57   28   30 1    
    58   30   31 1    
    59   30   32 1    
    60   30   92 1    
    61   31   93 1    
    62   31   94 1    
    63   31   95 1    
    64   32   33 am   BACKBONE|DICT|INTERRES
    65   32   96 1    
    66   33   34 2    
    67   33   35 1    
    68   35   36 1    
    69   35   37 1    
    70   35   97 1    
    71   36   98 1    
    72   36   99 1    
    73   36  100 1    
    74   37   38 am   BACKBONE|DICT|INTERRES
    75   37  101 1    
    76   38   39 2    
    77   38   40 1    
    78   40   41 1    
    79   40   42 1    
    80   40  102 1    
    81   41  103 1    
    82   41  104 1    
    83   41  105 1    
    84   42   43 am   BACKBONE|DICT|INTERRES
    85   42  106 1    
    86   43   44 2    
    87   43   45 1    
    88   45   46 1    
    89   45   49 1    
    90   45  107 1    
    91   46   47 1    
    92   46  108 1    
    93   46  109 1    
    94   47   48 1    
    95   48  110 1    
    96   48  111 1    
    97   49   50 am   BACKBONE|DICT|INTERRES
    98   49  112 1    
    99   50   51 2    
   100   50   52 1    
   101   52   53 1    
   102   52   54 1    
   103   52  113 1    
   104   53  114 1    
   105   53  115 1    
   106   53  116 1    
   107   54   55 am   BACKBONE|DICT|INTERRES
   108   54  117 1    
   109   55   56 2    
   110   55   57 1    
   111   57   58 1    
   112   57   59 1    
   113   57  118 1    
   114   58  119 1    
   115   58  120 1    
   116   58  121 1    
   117   59   60 am   BACKBONE|DICT|INTERRES
   118   59  122 1    
   119   60   61 2    
   120   60   62 1    
   121   62   63 1    
   122   62   64 1    
   123   62  123 1    
   124   63  124 1    
   125   63  125 1    
   126   63  126 1    
   127   64   65 am   BACKBONE|DICT|INTERRES
   128   64  127 1    
   129   65   66 2    
@<TRIPOS>SUBSTRUCTURE
     1 UNK         1 GROUP             0       ****    0 ROOT    
