@<TRIPOS>MOLECULE
3R134
127   129    1
SMALL
USER_CHARGES


@<TRIPOS>ATOM
      1 CA         32.6827  -44.6926  -56.8684 C.3       0 UNK        -0.1968 
      2 C          33.7270  -44.6112  -55.7639 C.2       0 UNK         0.4852 
      3 O          34.9073  -44.4285  -56.0621 O.2       0 UNK        -0.5359 
      4 N          33.2927  -44.7431  -54.5016 N.am      1 UNK        -0.4300 
      5 CA         34.1014  -44.7205  -53.2758 C.3       1 UNK         0.0863 
      6 C6         34.6446  -43.2953  -52.9427 C.3       11 UNK        -0.0953 
      7 S7         33.8646  -42.6183  -51.4378 S.3       11 UNK        -0.2369 
      8 C8         32.4588  -41.6658  -52.1146 C.3       11 UNK         0.0226 
      9 C9         31.4565  -42.5213  -52.8855 C.ar      11 UNK        -0.0699 
     10 C10        30.9305  -43.6907  -52.3233 C.ar      11 UNK        -0.0804 
     11 C11        30.0582  -44.5021  -53.0551 C.ar      11 UNK        -0.0871 
     12 C12        29.6584  -44.1054  -54.3333 C.ar      11 UNK        -0.1008 
     13 C13        30.1558  -42.9284  -54.8972 C.ar      11 UNK        -0.0735 
     14 C14        31.0584  -42.1431  -54.1729 C.ar      11 UNK        -0.0945 
     15 C15        29.7282  -42.5237  -56.2976 C.3       11 UNK         0.0169 
     16 S16        28.2977  -41.4055  -56.2410 S.3       11 UNK        -0.2669 
     17 C17        27.6573  -41.5674  -57.9432 C.3       11 UNK        -0.0850 
     18 CA         26.2681  -42.2589  -57.9860 C.3       10 UNK         0.0855 
     19 C          25.6617  -42.2222  -59.4207 C.2       10 UNK         0.5543 
     20 N          25.3039  -43.3444  -60.0340 N.am      10 UNK        -0.7343 
     21 O          25.5044  -41.1445  -59.9892 O.2       10 UNK        -0.5027 
     22 N          26.2945  -43.5971  -57.3691 N.am      10 UNK        -0.4495 
     23 C          25.2336  -44.1972  -56.8151 C.2       10 UNK         0.4903 
     24 O          24.1313  -43.6580  -56.6998 O.2       10 UNK        -0.4860 
     25 CA         25.4375  -45.6429  -56.3099 C.3       9 UNK         0.0227 
     26 CB         24.1025  -46.3968  -56.1385 C.3       9 UNK        -0.1964 
     27 N          26.3682  -46.4486  -57.1150 N.am      9 UNK        -0.4231 
     28 C          26.3219  -46.6709  -58.4393 C.2       9 UNK         0.5014 
     29 O          25.5037  -46.1551  -59.2012 O.2       9 UNK        -0.5270 
     30 CA         27.3742  -47.6318  -59.0082 C.3       8 UNK         0.0284 
     31 CB         28.7704  -46.9833  -59.0097 C.3       8 UNK        -0.1977 
     32 N          27.4014  -48.8790  -58.2430 N.am      8 UNK        -0.4342 
     33 C          26.6544  -49.9588  -58.5168 C.2       8 UNK         0.5039 
     34 O          25.9124  -50.0475  -59.4960 O.2       8 UNK        -0.5547 
     35 CA         26.7465  -51.1493  -57.5425 C.3       7 UNK         0.0281 
     36 CB         27.7671  -52.1807  -58.0501 C.3       7 UNK        -0.1963 
     37 N          27.1017  -50.7419  -56.1808 N.am      7 UNK        -0.4444 
     38 C          26.2621  -50.1117  -55.3434 C.2       7 UNK         0.5104 
     39 O          25.0697  -49.9317  -55.5883 O.2       7 UNK        -0.5100 
     40 CA         26.8411  -49.5619  -54.0229 C.3       6 UNK         0.0396 
     41 CB         26.4719  -50.4825  -52.8495 C.3       6 UNK        -0.1801 
     42 N          28.2941  -49.3702  -54.0426 N.am      6 UNK        -0.4747 
     43 C          28.9579  -48.5517  -54.8712 C.2       6 UNK         0.5012 
     44 O          28.3990  -47.7859  -55.6582 O.2       6 UNK        -0.5003 
     45 CA         30.4986  -48.6406  -54.8792 C.3       5 UNK         0.0782 
     46 C46        31.1424  -47.3649  -54.2956 C.3       11 UNK        -0.0868 
     47 S47        30.8650  -47.0997  -52.5066 S.3       11 UNK        -0.2515 
     48 C48        29.5656  -45.8193  -52.4752 C.3       11 UNK         0.0199 
     49 N          31.0522  -49.8833  -54.3121 N.am      5 UNK        -0.4607 
     50 C          30.8255  -51.1040  -54.8274 C.2       4 UNK         0.5031 
     51 O          30.0780  -51.2885  -55.7895 O.2       4 UNK        -0.5119 
     52 CA         31.5139  -52.3134  -54.1708 C.3       4 UNK         0.0263 
     53 CB         31.7463  -53.4681  -55.1647 C.3       4 UNK        -0.1967 
     54 N          32.7887  -51.9454  -53.5528 N.am      4 UNK        -0.4237 
     55 C          33.1700  -52.2857  -52.3146 C.2       3 UNK         0.4908 
     56 O          32.4872  -52.9768  -51.5568 O.2       3 UNK        -0.5102 
     57 CA         34.5440  -51.7849  -51.8191 C.3       3 UNK         0.0241 
     58 CB         35.5631  -52.9371  -51.8288 C.3       3 UNK        -0.1971 
     59 N          35.1193  -50.6374  -52.5368 N.am      3 UNK        -0.4139 
     60 C          34.5394  -49.4393  -52.6840 C.2       2 UNK         0.5016 
     61 O          33.3847  -49.1928  -52.3287 O.2       2 UNK        -0.5319 
     62 CA         35.3702  -48.3474  -53.3719 C.3       2 UNK         0.0286 
     63 CB         35.6209  -48.6812  -54.8550 C.3       2 UNK        -0.1963 
     64 N          34.6344  -47.0913  -53.2808 N.am      2 UNK        -0.4790 
     65 C          35.1489  -45.8573  -53.2812 C.2       1 UNK         0.5024 
     66 O          36.3578  -45.6213  -53.3251 O.2       1 UNK        -0.4888 
     67 H67        32.9617  -45.4580  -57.5922 H         1 UNK         0.0892 
     68 H68        31.6941  -44.9386  -56.4845 H         1 UNK         0.0892 
     69 H69        32.6163  -43.7386  -57.3905 H         1 UNK         0.0892 
     70 H70        32.2997  -44.8310  -54.3361 H         1 UNK         0.3107 
     71 H71        33.4079  -45.0134  -52.4864 H         1 UNK         0.0773 
     72 H72        35.7218  -43.2842  -52.7743 H         1 UNK         0.0680 
     73 H73        34.4809  -42.5996  -53.7670 H         1 UNK         0.0680 
     74 H74        32.8529  -40.8671  -52.7448 H         1 UNK         0.0650 
     75 H75        31.9383  -41.1784  -51.2895 H         1 UNK         0.0650 
     76 H76        31.2348  -43.9930  -51.3303 H         1 UNK         0.1397 
     77 H77        28.9703  -44.7215  -54.8971 H         1 UNK         0.1363 
     78 H78        31.4506  -41.2376  -54.6154 H         1 UNK         0.1355 
     79 H79        29.4800  -43.4140  -56.8775 H         1 UNK         0.0707 
     80 H80        30.5512  -42.0334  -56.8201 H         1 UNK         0.0707 
     81 H81        28.3727  -42.1015  -58.5710 H         1 UNK         0.1034 
     82 H82        27.5923  -40.5602  -58.3596 H         1 UNK         0.1034 
     83 H83        25.5990  -41.6404  -57.3842 H         1 UNK         0.0482 
     84 H84        24.9100  -43.2906  -60.9595 H         1 UNK         0.3460 
     85 H85        25.4036  -44.2500  -59.5854 H         1 UNK         0.3460 
     86 H86        27.1594  -44.1095  -57.4398 H         1 UNK         0.2989 
     87 H87        25.8942  -45.5535  -55.3231 H         1 UNK         0.0559 
     88 H88        23.5767  -46.5037  -57.0879 H         1 UNK         0.0848 
     89 H89        23.4363  -45.8725  -55.4523 H         1 UNK         0.0848 
     90 H90        24.2601  -47.3938  -55.7294 H         1 UNK         0.0848 
     91 H91        27.1086  -46.9077  -56.5862 H         1 UNK         0.3144 
     92 H92        27.1077  -47.8464  -60.0456 H         1 UNK         0.0727 
     93 H93        29.5108  -47.6458  -59.4583 H         1 UNK         0.0790 
     94 H94        29.1142  -46.7323  -58.0060 H         1 UNK         0.0790 
     95 H95        28.7687  -46.0611  -59.5924 H         1 UNK         0.0790 
     96 H96        27.9364  -48.8687  -57.3840 H         1 UNK         0.3215 
     97 H97        25.7655  -51.6290  -57.5130 H         1 UNK         0.0863 
     98 H98        27.8249  -53.0437  -57.3866 H         1 UNK         0.0808 
     99 H99        28.7674  -51.7535  -58.1319 H         1 UNK         0.0808 
    100 H100       27.4892  -52.5490  -59.0386 H         1 UNK         0.0808 
    101 H101       28.0682  -50.8821  -55.9017 H         1 UNK         0.3118 
    102 H102       26.3827  -48.5858  -53.8509 H         1 UNK         0.0546 
    103 H103       25.3915  -50.6205  -52.7867 H         1 UNK         0.0828 
    104 H104       26.7978  -50.0636  -51.8973 H         1 UNK         0.0828 
    105 H105       26.9206  -51.4711  -52.9548 H         1 UNK         0.0828 
    106 H106       28.8390  -49.9541  -53.4247 H         1 UNK         0.3005 
    107 H107       30.7657  -48.6596  -55.9388 H         1 UNK         0.1257 
    108 H108       30.8059  -46.4959  -54.8582 H         1 UNK         0.0775 
    109 H109       32.2167  -47.4137  -54.4658 H         1 UNK         0.0775 
    110 H110       28.6851  -46.1776  -53.0107 H         1 UNK         0.0840 
    111 H111       29.2492  -45.6636  -51.4428 H         1 UNK         0.0840 
    112 H112       31.6566  -49.7789  -53.5033 H         1 UNK         0.2987 
    113 H113       30.8161  -52.6636  -53.4074 H         1 UNK         0.0785 
    114 H114       32.3946  -53.1652  -55.9877 H         1 UNK         0.0798 
    115 H115       30.8062  -53.8130  -55.5976 H         1 UNK         0.0798 
    116 H116       32.2059  -54.3260  -54.6737 H         1 UNK         0.0798 
    117 H117       33.4055  -51.3646  -54.1028 H         1 UNK         0.3079 
    118 H118       34.4010  -51.4694  -50.7835 H         1 UNK         0.0794 
    119 H119       35.7800  -53.2742  -52.8433 H         1 UNK         0.0786 
    120 H120       35.1883  -53.7981  -51.2731 H         1 UNK         0.0786 
    121 H121       36.5036  -52.6416  -51.3631 H         1 UNK         0.0786 
    122 H122       36.0613  -50.7590  -52.8809 H         1 UNK         0.3032 
    123 H123       36.3208  -48.2544  -52.8416 H         1 UNK         0.1094 
    124 H124       36.1882  -47.8909  -55.3473 H         1 UNK         0.0794 
    125 H125       36.1947  -49.6019  -54.9662 H         1 UNK         0.0794 
    126 H126       34.6859  -48.8077  -55.4026 H         1 UNK         0.0794 
    127 H127       33.6405  -47.2199  -53.1284 H         1 UNK         0.3016 
@<TRIPOS>BOND
     1    1    2 1    
     2    1   67 1    
     3    1   68 1    
     4    1   69 1    
     5    2    3 2    
     6    2    4 am   BACKBONE|DICT|INTERRES
     7    4    5 1    
     8    4   70 1    
     9    5    6 1    
    10    5   65 1    
    11    5   71 1    
    12    6    7 1    
    13    6   72 1    
    14    6   73 1    
    15    7    8 1    
    16    8    9 1    
    17    8   74 1    
    18    8   75 1    
    19    9   10 ar   
    20    9   14 ar   
    21   10   11 ar   
    22   10   76 1    
    23   11   12 ar   
    24   11   48 1    
    25   12   13 ar   
    26   12   77 1    
    27   13   14 ar   
    28   13   15 1    
    29   14   78 1    
    30   15   16 1    
    31   15   79 1    
    32   15   80 1    
    33   16   17 1    
    34   17   18 1    
    35   17   81 1    
    36   17   82 1    
    37   18   19 1    
    38   18   22 1    
    39   18   83 1    
    40   19   20 am   BACKBONE|DICT|INTERRES
    41   19   21 2    
    42   20   84 1    
    43   20   85 1    
    44   22   23 am   BACKBONE|DICT|INTERRES
    45   22   86 1    
    46   23   24 2    
    47   23   25 1    
    48   25   26 1    
    49   25   27 1    
    50   25   87 1    
    51   26   88 1    
    52   26   89 1    
    53   26   90 1    
    54   27   28 am   BACKBONE|DICT|INTERRES
    55   27   91 1    
    56   28   29 2    
    57   28   30 1    
    58   30   31 1    
    59   30   32 1    
    60   30   92 1    
    61   31   93 1    
    62   31   94 1    
    63   31   95 1    
    64   32   33 am   BACKBONE|DICT|INTERRES
    65   32   96 1    
    66   33   34 2    
    67   33   35 1    
    68   35   36 1    
    69   35   37 1    
    70   35   97 1    
    71   36   98 1    
    72   36   99 1    
    73   36  100 1    
    74   37   38 am   BACKBONE|DICT|INTERRES
    75   37  101 1    
    76   38   39 2    
    77   38   40 1    
    78   40   41 1    
    79   40   42 1    
    80   40  102 1    
    81   41  103 1    
    82   41  104 1    
    83   41  105 1    
    84   42   43 am   BACKBONE|DICT|INTERRES
    85   42  106 1    
    86   43   44 2    
    87   43   45 1    
    88   45   46 1    
    89   45   49 1    
    90   45  107 1    
    91   46   47 1    
    92   46  108 1    
    93   46  109 1    
    94   47   48 1    
    95   48  110 1    
    96   48  111 1    
    97   49   50 am   BACKBONE|DICT|INTERRES
    98   49  112 1    
    99   50   51 2    
   100   50   52 1    
   101   52   53 1    
   102   52   54 1    
   103   52  113 1    
   104   53  114 1    
   105   53  115 1    
   106   53  116 1    
   107   54   55 am   BACKBONE|DICT|INTERRES
   108   54  117 1    
   109   55   56 2    
   110   55   57 1    
   111   57   58 1    
   112   57   59 1    
   113   57  118 1    
   114   58  119 1    
   115   58  120 1    
   116   58  121 1    
   117   59   60 am   BACKBONE|DICT|INTERRES
   118   59  122 1    
   119   60   61 2    
   120   60   62 1    
   121   62   63 1    
   122   62   64 1    
   123   62  123 1    
   124   63  124 1    
   125   63  125 1    
   126   63  126 1    
   127   64   65 am   BACKBONE|DICT|INTERRES
   128   64  127 1    
   129   65   66 2    
@<TRIPOS>SUBSTRUCTURE
     1 UNK         1 GROUP             0       ****    0 ROOT    
