@<TRIPOS>MOLECULE
3R134
127   129    1
SMALL
USER_CHARGES


@<TRIPOS>ATOM
      1 CA         32.2163  -43.6920  -47.4153 C.3       0 UNK        -0.1968 
      2 C          32.8226  -44.1739  -48.7253 C.2       0 UNK         0.4852 
      3 O          34.0456  -44.1547  -48.8762 O.2       0 UNK        -0.5359 
      4 N          31.9775  -44.5959  -49.6742 N.am      1 UNK        -0.4300 
      5 CA         32.3800  -45.1360  -50.9766 C.3       1 UNK         0.0863 
      6 C6         31.1945  -45.2029  -51.9720 C.3       11 UNK        -0.0953 
      7 S7         30.3138  -43.6230  -52.1929 S.3       11 UNK        -0.2369 
      8 C8         31.3818  -42.7530  -53.3844 C.3       11 UNK         0.0226 
      9 C9         31.4975  -43.4591  -54.7305 C.ar      11 UNK        -0.0699 
     10 C10        32.7571  -43.7958  -55.2363 C.ar      11 UNK        -0.0804 
     11 C11        32.8879  -44.3817  -56.4994 C.ar      11 UNK        -0.0871 
     12 C12        31.7385  -44.6268  -57.2589 C.ar      11 UNK        -0.1008 
     13 C13        30.4709  -44.3260  -56.7533 C.ar      11 UNK        -0.0735 
     14 C14        30.3568  -43.7373  -55.4904 C.ar      11 UNK        -0.0945 
     15 C15        29.2243  -44.6473  -57.5636 C.3       11 UNK         0.0169 
     16 S16        28.4774  -43.1370  -58.2424 S.3       11 UNK        -0.2669 
     17 C17        26.9883  -43.8010  -59.0613 C.3       11 UNK        -0.0850 
     18 CA         25.7398  -43.7462  -58.1377 C.3       10 UNK         0.0855 
     19 C          24.4073  -43.7787  -58.9450 C.2       10 UNK         0.5543 
     20 N          23.4110  -44.5765  -58.5788 N.am      10 UNK        -0.7343 
     21 O          24.2592  -43.0412  -59.9166 O.2       10 UNK        -0.5027 
     22 N          25.8094  -44.7876  -57.1015 N.am      10 UNK        -0.4495 
     23 C          25.5396  -44.6147  -55.8006 C.2       10 UNK         0.4903 
     24 O          25.2894  -43.5191  -55.2959 O.2       10 UNK        -0.4860 
     25 CA         25.5424  -45.8817  -54.9119 C.3       9 UNK         0.0227 
     26 CB         24.6923  -45.7153  -53.6352 C.3       9 UNK        -0.1964 
     27 N          25.1608  -47.1075  -55.6276 N.am      9 UNK        -0.4231 
     28 C          24.0369  -47.3156  -56.3349 C.2       9 UNK         0.5014 
     29 O          23.0997  -46.5163  -56.3718 O.2       9 UNK        -0.5270 
     30 CA         23.9740  -48.5965  -57.1974 C.3       8 UNK         0.0284 
     31 CB         23.0748  -48.4200  -58.4398 C.3       8 UNK        -0.1977 
     32 N          25.2933  -49.1082  -57.5979 N.am      8 UNK        -0.4342 
     33 C          26.2619  -48.4423  -58.2454 C.2       8 UNK         0.5039 
     34 O          26.1677  -47.2752  -58.6327 O.2       8 UNK        -0.5547 
     35 CA         27.6030  -49.1789  -58.3877 C.3       7 UNK         0.0281 
     36 CB         28.1426  -49.0779  -59.8241 C.3       7 UNK        -0.1963 
     37 N          28.6057  -48.6436  -57.4638 N.am      7 UNK        -0.4444 
     38 C          28.5051  -48.5396  -56.1334 C.2       7 UNK         0.5104 
     39 O          27.5163  -48.9209  -55.5023 O.2       7 UNK        -0.5100 
     40 CA         29.6809  -47.8767  -55.3793 C.3       6 UNK         0.0396 
     41 CB         29.5394  -48.0458  -53.8555 C.3       6 UNK        -0.1801 
     42 N          31.0270  -48.3210  -55.7635 N.am      6 UNK        -0.4747 
     43 C          31.6534  -48.1638  -56.9403 C.2       6 UNK         0.5012 
     44 O          31.1185  -47.6996  -57.9478 O.2       6 UNK        -0.5003 
     45 CA         33.1239  -48.6171  -57.0102 C.3       5 UNK         0.0782 
     46 C46        34.0961  -47.4916  -56.5723 C.3       11 UNK        -0.0868 
     47 S47        34.4093  -46.2950  -57.9125 S.3       11 UNK        -0.2515 
     48 C48        34.2803  -44.6948  -57.0434 C.3       11 UNK         0.0199 
     49 N          33.3326  -49.8300  -56.2176 N.am      5 UNK        -0.4607 
     50 C          33.2507  -51.0787  -56.6948 C.2       4 UNK         0.5031 
     51 O          33.0044  -51.3446  -57.8714 O.2       4 UNK        -0.5119 
     52 CA         33.5057  -52.2339  -55.7080 C.3       4 UNK         0.0263 
     53 CB         34.9513  -52.7401  -55.8422 C.3       4 UNK        -0.1967 
     54 N          33.2547  -51.8701  -54.3115 N.am      4 UNK        -0.4237 
     55 C          32.0358  -51.7175  -53.7763 C.2       3 UNK         0.4908 
     56 O          30.9877  -51.9353  -54.3841 O.2       3 UNK        -0.5102 
     57 CA         31.9715  -51.2128  -52.3228 C.3       3 UNK         0.0241 
     58 CB         31.9186  -52.3987  -51.3460 C.3       3 UNK        -0.1971 
     59 N          33.0602  -50.3061  -51.9297 N.am      3 UNK        -0.4139 
     60 C          33.3466  -49.1441  -52.5320 C.2       2 UNK         0.5016 
     61 O          32.8089  -48.7599  -53.5722 O.2       2 UNK        -0.5319 
     62 CA         34.4242  -48.2590  -51.8892 C.3       2 UNK         0.0286 
     63 CB         35.6909  -48.2345  -52.7599 C.3       2 UNK        -0.1963 
     64 N          33.9110  -46.8958  -51.7404 N.am      2 UNK        -0.4790 
     65 C          32.9987  -46.5408  -50.8257 C.2       1 UNK         0.5024 
     66 O          32.6060  -47.2934  -49.9295 O.2       1 UNK        -0.4888 
     67 H67        31.1278  -43.7471  -47.4249 H         1 UNK         0.0892 
     68 H68        32.5791  -44.3011  -46.5878 H         1 UNK         0.0892 
     69 H69        32.5012  -42.6570  -47.2281 H         1 UNK         0.0892 
     70 H70        30.9842  -44.5989  -49.4928 H         1 UNK         0.3107 
     71 H71        33.1416  -44.4722  -51.3913 H         1 UNK         0.0773 
     72 H72        31.5318  -45.5561  -52.9482 H         1 UNK         0.0680 
     73 H73        30.4557  -45.9287  -51.6268 H         1 UNK         0.0680 
     74 H74        32.3641  -42.6087  -52.9324 H         1 UNK         0.0650 
     75 H75        30.9738  -41.7551  -53.5499 H         1 UNK         0.0650 
     76 H76        33.6420  -43.5780  -54.6539 H         1 UNK         0.1397 
     77 H77        31.8283  -45.0702  -58.2411 H         1 UNK         0.1363 
     78 H78        29.3788  -43.4844  -55.1039 H         1 UNK         0.1355 
     79 H79        28.5034  -45.1576  -56.9256 H         1 UNK         0.0707 
     80 H80        29.4580  -45.3358  -58.3775 H         1 UNK         0.0707 
     81 H81        26.8398  -43.1959  -59.9575 H         1 UNK         0.1034 
     82 H82        27.1687  -44.8170  -59.4176 H         1 UNK         0.1034 
     83 H83        25.7361  -42.7661  -57.6577 H         1 UNK         0.0482 
     84 H84        23.4827  -45.1737  -57.7620 H         1 UNK         0.3460 
     85 H85        22.5580  -44.5673  -59.1143 H         1 UNK         0.3460 
     86 H86        25.9549  -45.7285  -57.4594 H         1 UNK         0.2989 
     87 H87        26.5783  -46.0263  -54.6018 H         1 UNK         0.0559 
     88 H88        25.0560  -44.8870  -53.0258 H         1 UNK         0.0848 
     89 H89        23.6471  -45.5117  -53.8704 H         1 UNK         0.0848 
     90 H90        24.7285  -46.6107  -53.0148 H         1 UNK         0.0848 
     91 H91        25.8755  -47.8308  -55.6580 H         1 UNK         0.3144 
     92 H92        23.5236  -49.3631  -56.5653 H         1 UNK         0.0727 
     93 H93        23.0229  -49.3375  -59.0258 H         1 UNK         0.0790 
     94 H94        23.4410  -47.6262  -59.0922 H         1 UNK         0.0790 
     95 H95        22.0538  -48.1626  -58.1551 H         1 UNK         0.0790 
     96 H96        25.5088  -50.0394  -57.2671 H         1 UNK         0.3215 
     97 H97        27.4597  -50.2349  -58.1505 H         1 UNK         0.0863 
     98 H98        27.4189  -49.4667  -60.5416 H         1 UNK         0.0808 
     99 H99        28.3563  -48.0449  -60.1030 H         1 UNK         0.0808 
    100 H100       29.0611  -49.6527  -59.9446 H         1 UNK         0.0808 
    101 H101       29.4633  -48.2799  -57.8775 H         1 UNK         0.3118 
    102 H102       29.6272  -46.8097  -55.5930 H         1 UNK         0.0546 
    103 H103       28.6250  -47.5784  -53.4878 H         1 UNK         0.0828 
    104 H104       30.3718  -47.5893  -53.3246 H         1 UNK         0.0828 
    105 H105       29.5084  -49.0989  -53.5733 H         1 UNK         0.0828 
    106 H106       31.5909  -48.6795  -54.9967 H         1 UNK         0.3005 
    107 H107       33.3321  -48.8531  -58.0568 H         1 UNK         0.1257 
    108 H108       35.0654  -47.9178  -56.3089 H         1 UNK         0.0775 
    109 H109       33.7416  -46.9852  -55.6720 H         1 UNK         0.0775 
    110 H110       35.0202  -44.6800  -56.2415 H         1 UNK         0.0840 
    111 H111       34.5640  -43.9014  -57.7359 H         1 UNK         0.0840 
    112 H112       33.4600  -49.6879  -55.2221 H         1 UNK         0.2987 
    113 H113       32.8322  -53.0502  -55.9784 H         1 UNK         0.0785 
    114 H114       35.1626  -53.0492  -56.8670 H         1 UNK         0.0798 
    115 H115       35.1307  -53.6043  -55.2024 H         1 UNK         0.0798 
    116 H116       35.6766  -51.9690  -55.5789 H         1 UNK         0.0798 
    117 H117       34.0605  -51.6816  -53.7333 H         1 UNK         0.3079 
    118 H118       31.0398  -50.6520  -52.2235 H         1 UNK         0.0794 
    119 H119       31.1028  -53.0777  -51.5990 H         1 UNK         0.0786 
    120 H120       31.7506  -52.0636  -50.3222 H         1 UNK         0.0786 
    121 H121       32.8423  -52.9786  -51.3636 H         1 UNK         0.0786 
    122 H122       33.5586  -50.5487  -51.0852 H         1 UNK         0.3032 
    123 H123       34.6828  -48.6526  -50.9033 H         1 UNK         0.1094 
    124 H124       36.4707  -47.6222  -52.3067 H         1 UNK         0.0794 
    125 H125       36.1000  -49.2381  -52.8838 H         1 UNK         0.0794 
    126 H126       35.4917  -47.8383  -53.7563 H         1 UNK         0.0794 
    127 H127       34.1511  -46.2437  -52.4727 H         1 UNK         0.3016 
@<TRIPOS>BOND
     1    1    2 1    
     2    1   67 1    
     3    1   68 1    
     4    1   69 1    
     5    2    3 2    
     6    2    4 am   BACKBONE|DICT|INTERRES
     7    4    5 1    
     8    4   70 1    
     9    5    6 1    
    10    5   65 1    
    11    5   71 1    
    12    6    7 1    
    13    6   72 1    
    14    6   73 1    
    15    7    8 1    
    16    8    9 1    
    17    8   74 1    
    18    8   75 1    
    19    9   10 ar   
    20    9   14 ar   
    21   10   11 ar   
    22   10   76 1    
    23   11   12 ar   
    24   11   48 1    
    25   12   13 ar   
    26   12   77 1    
    27   13   14 ar   
    28   13   15 1    
    29   14   78 1    
    30   15   16 1    
    31   15   79 1    
    32   15   80 1    
    33   16   17 1    
    34   17   18 1    
    35   17   81 1    
    36   17   82 1    
    37   18   19 1    
    38   18   22 1    
    39   18   83 1    
    40   19   20 am   BACKBONE|DICT|INTERRES
    41   19   21 2    
    42   20   84 1    
    43   20   85 1    
    44   22   23 am   BACKBONE|DICT|INTERRES
    45   22   86 1    
    46   23   24 2    
    47   23   25 1    
    48   25   26 1    
    49   25   27 1    
    50   25   87 1    
    51   26   88 1    
    52   26   89 1    
    53   26   90 1    
    54   27   28 am   BACKBONE|DICT|INTERRES
    55   27   91 1    
    56   28   29 2    
    57   28   30 1    
    58   30   31 1    
    59   30   32 1    
    60   30   92 1    
    61   31   93 1    
    62   31   94 1    
    63   31   95 1    
    64   32   33 am   BACKBONE|DICT|INTERRES
    65   32   96 1    
    66   33   34 2    
    67   33   35 1    
    68   35   36 1    
    69   35   37 1    
    70   35   97 1    
    71   36   98 1    
    72   36   99 1    
    73   36  100 1    
    74   37   38 am   BACKBONE|DICT|INTERRES
    75   37  101 1    
    76   38   39 2    
    77   38   40 1    
    78   40   41 1    
    79   40   42 1    
    80   40  102 1    
    81   41  103 1    
    82   41  104 1    
    83   41  105 1    
    84   42   43 am   BACKBONE|DICT|INTERRES
    85   42  106 1    
    86   43   44 2    
    87   43   45 1    
    88   45   46 1    
    89   45   49 1    
    90   45  107 1    
    91   46   47 1    
    92   46  108 1    
    93   46  109 1    
    94   47   48 1    
    95   48  110 1    
    96   48  111 1    
    97   49   50 am   BACKBONE|DICT|INTERRES
    98   49  112 1    
    99   50   51 2    
   100   50   52 1    
   101   52   53 1    
   102   52   54 1    
   103   52  113 1    
   104   53  114 1    
   105   53  115 1    
   106   53  116 1    
   107   54   55 am   BACKBONE|DICT|INTERRES
   108   54  117 1    
   109   55   56 2    
   110   55   57 1    
   111   57   58 1    
   112   57   59 1    
   113   57  118 1    
   114   58  119 1    
   115   58  120 1    
   116   58  121 1    
   117   59   60 am   BACKBONE|DICT|INTERRES
   118   59  122 1    
   119   60   61 2    
   120   60   62 1    
   121   62   63 1    
   122   62   64 1    
   123   62  123 1    
   124   63  124 1    
   125   63  125 1    
   126   63  126 1    
   127   64   65 am   BACKBONE|DICT|INTERRES
   128   64  127 1    
   129   65   66 2    
@<TRIPOS>SUBSTRUCTURE
     1 UNK         1 GROUP             0       ****    0 ROOT    
