@<TRIPOS>MOLECULE
3R134
127   129    1
SMALL
USER_CHARGES


@<TRIPOS>ATOM
      1 CA         36.1892  -43.5213  -50.3649 C.3       0 UNK        -0.1968 
      2 C          36.8159  -44.4779  -51.3690 C.2       0 UNK         0.4852 
      3 O          37.9858  -44.8371  -51.2241 O.2       0 UNK        -0.5359 
      4 N          36.0487  -44.8848  -52.3875 N.am      1 UNK        -0.4300 
      5 CA         36.4460  -45.8677  -53.3984 C.3       1 UNK         0.0863 
      6 C6         35.6481  -45.6897  -54.7178 C.3       11 UNK        -0.0953 
      7 S7         33.8304  -45.7869  -54.5420 S.3       11 UNK        -0.2369 
      8 C8         33.3757  -44.0322  -54.6910 C.3       11 UNK         0.0226 
      9 C9         31.8664  -43.8515  -54.7043 C.ar      11 UNK        -0.0699 
     10 C10        31.1562  -43.7292  -53.5052 C.ar      11 UNK        -0.0804 
     11 C11        29.7690  -43.5508  -53.5188 C.ar      11 UNK        -0.0871 
     12 C12        29.0959  -43.4990  -54.7415 C.ar      11 UNK        -0.1008 
     13 C13        29.7949  -43.6162  -55.9463 C.ar      11 UNK        -0.0735 
     14 C14        31.1806  -43.7945  -55.9213 C.ar      11 UNK        -0.0945 
     15 C15        29.0468  -43.5910  -57.2701 C.3       11 UNK         0.0169 
     16 S16        27.9943  -42.1127  -57.4421 S.3       11 UNK        -0.2669 
     17 C17        26.6577  -42.8253  -58.4494 C.3       11 UNK        -0.0850 
     18 CA         25.6880  -43.7037  -57.5885 C.3       10 UNK         0.0855 
     19 C          24.2464  -43.1257  -57.4678 C.2       10 UNK         0.5543 
     20 N          24.1172  -41.8361  -57.1855 N.am      10 UNK        -0.7343 
     21 O          23.2450  -43.8307  -57.5805 O.2       10 UNK        -0.5027 
     22 N          25.7427  -45.1223  -57.9711 N.am      10 UNK        -0.4495 
     23 C          25.4138  -45.6285  -59.1667 C.2       10 UNK         0.4903 
     24 O          25.0100  -44.9507  -60.1141 O.2       10 UNK        -0.4860 
     25 CA         25.5894  -47.1494  -59.3297 C.3       9 UNK         0.0227 
     26 CB         25.4814  -47.6181  -60.7963 C.3       9 UNK        -0.1964 
     27 N          26.8210  -47.6584  -58.7143 N.am      9 UNK        -0.4231 
     28 C          28.0923  -47.3320  -59.0036 C.2       9 UNK         0.5014 
     29 O          28.4095  -46.4939  -59.8485 O.2       9 UNK        -0.5270 
     30 CA         29.2127  -48.0621  -58.2288 C.3       8 UNK         0.0284 
     31 CB         30.0067  -47.0828  -57.3477 C.3       8 UNK        -0.1977 
     32 N          28.7311  -49.1587  -57.3863 N.am      8 UNK        -0.4342 
     33 C          28.2694  -50.3370  -57.8253 C.2       8 UNK         0.5039 
     34 O          28.2983  -50.6933  -59.0033 O.2       8 UNK        -0.5547 
     35 CA         27.6017  -51.2371  -56.7732 C.3       7 UNK         0.0281 
     36 CB         28.6466  -52.1013  -56.0486 C.3       7 UNK        -0.1963 
     37 N          26.8261  -50.4580  -55.7991 N.am      7 UNK        -0.4444 
     38 C          25.6757  -49.8265  -56.0788 C.2       7 UNK         0.5104 
     39 O          25.1268  -49.8677  -57.1787 O.2       7 UNK        -0.5100 
     40 CA         25.0473  -48.9755  -54.9620 C.3       6 UNK         0.0396 
     41 CB         24.1613  -49.8452  -54.0566 C.3       6 UNK        -0.1801 
     42 N          26.0473  -48.2822  -54.1481 N.am      6 UNK        -0.4747 
     43 C          26.7689  -47.2259  -54.5542 C.2       6 UNK         0.5012 
     44 O          26.6269  -46.6777  -55.6489 O.2       6 UNK        -0.5003 
     45 CA         27.8627  -46.7300  -53.5832 C.3       5 UNK         0.0782 
     46 C46        27.3026  -45.6399  -52.6363 C.3       11 UNK        -0.0868 
     47 S47        28.5650  -45.0005  -51.4795 S.3       11 UNK        -0.2515 
     48 C48        28.9973  -43.3937  -52.2167 C.3       11 UNK         0.0199 
     49 N          28.5016  -47.8265  -52.8406 N.am      5 UNK        -0.4607 
     50 C          29.1879  -48.8266  -53.4021 C.2       4 UNK         0.5031 
     51 O          29.2825  -48.9888  -54.6203 O.2       4 UNK        -0.5119 
     52 CA         29.8216  -49.8515  -52.4510 C.3       4 UNK         0.0263 
     53 CB         28.8393  -50.9995  -52.1660 C.3       4 UNK        -0.1967 
     54 N          31.0411  -50.3943  -53.0491 N.am      4 UNK        -0.4237 
     55 C          32.2073  -49.7397  -53.0766 C.2       3 UNK         0.4908 
     56 O          32.4290  -48.6988  -52.4526 O.2       3 UNK        -0.5102 
     57 CA         33.2938  -50.3329  -53.9783 C.3       3 UNK         0.0241 
     58 CB         33.0526  -49.9354  -55.4483 C.3       3 UNK        -0.1971 
     59 N          34.5905  -49.8365  -53.5306 N.am      3 UNK        -0.4139 
     60 C          35.7795  -50.3954  -53.7753 C.2       2 UNK         0.5016 
     61 O          35.9211  -51.4211  -54.4446 O.2       2 UNK        -0.5319 
     62 CA         37.0148  -49.6797  -53.1872 C.3       2 UNK         0.0286 
     63 CB         38.3427  -50.3041  -53.6573 C.3       2 UNK        -0.1963 
     64 N          37.0272  -48.2481  -53.5089 N.am      2 UNK        -0.4790 
     65 C          36.3463  -47.3050  -52.8450 C.2       1 UNK         0.5024 
     66 O          35.6393  -47.5513  -51.8642 O.2       1 UNK        -0.4888 
     67 H67        35.1598  -43.2740  -50.6240 H         1 UNK         0.0892 
     68 H68        36.1904  -43.9680  -49.3710 H         1 UNK         0.0892 
     69 H69        36.7599  -42.5940  -50.3230 H         1 UNK         0.0892 
     70 H70        35.0791  -44.6075  -52.4225 H         1 UNK         0.3107 
     71 H71        37.4988  -45.6947  -53.6336 H         1 UNK         0.0773 
     72 H72        35.9115  -44.7312  -55.1673 H         1 UNK         0.0680 
     73 H73        35.9526  -46.4377  -55.4520 H         1 UNK         0.0680 
     74 H74        33.8062  -43.6231  -55.6064 H         1 UNK         0.0650 
     75 H75        33.8125  -43.4680  -53.8660 H         1 UNK         0.0650 
     76 H76        31.6827  -43.7742  -52.5615 H         1 UNK         0.1397 
     77 H77        28.0234  -43.3634  -54.7602 H         1 UNK         0.1363 
     78 H78        31.7276  -43.8962  -56.8487 H         1 UNK         0.1355 
     79 H79        29.7347  -43.6336  -58.1159 H         1 UNK         0.0707 
     80 H80        28.4371  -44.4930  -57.3248 H         1 UNK         0.0707 
     81 H81        26.1385  -42.0125  -58.9602 H         1 UNK         0.1034 
     82 H82        27.1197  -43.3991  -59.2547 H         1 UNK         0.1034 
     83 H83        26.0394  -43.7178  -56.5560 H         1 UNK         0.0482 
     84 H84        23.1932  -41.4451  -57.0864 H         1 UNK         0.3460 
     85 H85        24.9273  -41.2494  -57.0576 H         1 UNK         0.3460 
     86 H86        26.0410  -45.7587  -57.2361 H         1 UNK         0.2989 
     87 H87        24.7658  -47.6059  -58.7794 H         1 UNK         0.0559 
     88 H88        24.5138  -47.3510  -61.2227 H         1 UNK         0.0848 
     89 H89        25.5807  -48.7008  -60.8741 H         1 UNK         0.0848 
     90 H90        26.2496  -47.1644  -61.4236 H         1 UNK         0.0848 
     91 H91        26.6769  -48.3522  -57.9931 H         1 UNK         0.3144 
     92 H92        29.8947  -48.4809  -58.9714 H         1 UNK         0.0727 
     93 H93        29.3791  -46.6399  -56.5744 H         1 UNK         0.0790 
     94 H94        30.4234  -46.2682  -57.9411 H         1 UNK         0.0790 
     95 H95        30.8408  -47.5799  -56.8517 H         1 UNK         0.0790 
     96 H96        28.7556  -49.0004  -56.3796 H         1 UNK         0.3215 
     97 H97        26.9138  -51.9052  -57.2965 H         1 UNK         0.0863 
     98 H98        28.1784  -52.7686  -55.3251 H         1 UNK         0.0808 
     99 H99        29.3847  -51.4951  -55.5238 H         1 UNK         0.0808 
    100 H100       29.1897  -52.7262  -56.7589 H         1 UNK         0.0808 
    101 H101       27.2400  -50.3227  -54.8890 H         1 UNK         0.3118 
    102 H102       24.4119  -48.2233  -55.4349 H         1 UNK         0.0546 
    103 H103       24.7378  -50.6114  -53.5366 H         1 UNK         0.0828 
    104 H104       23.3927  -50.3557  -54.6388 H         1 UNK         0.0828 
    105 H105       23.6489  -49.2429  -53.3063 H         1 UNK         0.0828 
    106 H106       26.2288  -48.6557  -53.2276 H         1 UNK         0.3005 
    107 H107       28.6405  -46.2752  -54.2006 H         1 UNK         0.1257 
    108 H108       26.4818  -46.0413  -52.0388 H         1 UNK         0.0775 
    109 H109       26.8783  -44.8115  -53.2060 H         1 UNK         0.0775 
    110 H110       28.0917  -42.8052  -52.3724 H         1 UNK         0.0840 
    111 H111       29.6003  -42.8318  -51.5017 H         1 UNK         0.0840 
    112 H112       28.4718  -47.7512  -51.8339 H         1 UNK         0.2987 
    113 H113       30.0712  -49.3591  -51.5083 H         1 UNK         0.0785 
    114 H114       27.9268  -50.6280  -51.6978 H         1 UNK         0.0798 
    115 H115       29.2745  -51.7304  -51.4841 H         1 UNK         0.0798 
    116 H116       28.5487  -51.5251  -53.0757 H         1 UNK         0.0798 
    117 H117       30.9342  -51.2210  -53.6180 H         1 UNK         0.3079 
    118 H118       33.2736  -51.4204  -53.8796 H         1 UNK         0.0794 
    119 H119       33.7977  -50.3779  -56.1094 H         1 UNK         0.0786 
    120 H120       33.0891  -48.8529  -55.5799 H         1 UNK         0.0786 
    121 H121       32.0736  -50.2709  -55.7939 H         1 UNK         0.0786 
    122 H122       34.5431  -49.0102  -52.9394 H         1 UNK         0.3032 
    123 H123       36.9607  -49.8010  -52.1026 H         1 UNK         0.1094 
    124 H124       38.4588  -50.2400  -54.7399 H         1 UNK         0.0794 
    125 H125       39.1986  -49.8098  -53.1973 H         1 UNK         0.0794 
    126 H126       38.3977  -51.3590  -53.3847 H         1 UNK         0.0794 
    127 H127       37.5562  -47.9805  -54.3273 H         1 UNK         0.3016 
@<TRIPOS>BOND
     1    1    2 1    
     2    1   67 1    
     3    1   68 1    
     4    1   69 1    
     5    2    3 2    
     6    2    4 am   BACKBONE|DICT|INTERRES
     7    4    5 1    
     8    4   70 1    
     9    5    6 1    
    10    5   65 1    
    11    5   71 1    
    12    6    7 1    
    13    6   72 1    
    14    6   73 1    
    15    7    8 1    
    16    8    9 1    
    17    8   74 1    
    18    8   75 1    
    19    9   10 ar   
    20    9   14 ar   
    21   10   11 ar   
    22   10   76 1    
    23   11   12 ar   
    24   11   48 1    
    25   12   13 ar   
    26   12   77 1    
    27   13   14 ar   
    28   13   15 1    
    29   14   78 1    
    30   15   16 1    
    31   15   79 1    
    32   15   80 1    
    33   16   17 1    
    34   17   18 1    
    35   17   81 1    
    36   17   82 1    
    37   18   19 1    
    38   18   22 1    
    39   18   83 1    
    40   19   20 am   BACKBONE|DICT|INTERRES
    41   19   21 2    
    42   20   84 1    
    43   20   85 1    
    44   22   23 am   BACKBONE|DICT|INTERRES
    45   22   86 1    
    46   23   24 2    
    47   23   25 1    
    48   25   26 1    
    49   25   27 1    
    50   25   87 1    
    51   26   88 1    
    52   26   89 1    
    53   26   90 1    
    54   27   28 am   BACKBONE|DICT|INTERRES
    55   27   91 1    
    56   28   29 2    
    57   28   30 1    
    58   30   31 1    
    59   30   32 1    
    60   30   92 1    
    61   31   93 1    
    62   31   94 1    
    63   31   95 1    
    64   32   33 am   BACKBONE|DICT|INTERRES
    65   32   96 1    
    66   33   34 2    
    67   33   35 1    
    68   35   36 1    
    69   35   37 1    
    70   35   97 1    
    71   36   98 1    
    72   36   99 1    
    73   36  100 1    
    74   37   38 am   BACKBONE|DICT|INTERRES
    75   37  101 1    
    76   38   39 2    
    77   38   40 1    
    78   40   41 1    
    79   40   42 1    
    80   40  102 1    
    81   41  103 1    
    82   41  104 1    
    83   41  105 1    
    84   42   43 am   BACKBONE|DICT|INTERRES
    85   42  106 1    
    86   43   44 2    
    87   43   45 1    
    88   45   46 1    
    89   45   49 1    
    90   45  107 1    
    91   46   47 1    
    92   46  108 1    
    93   46  109 1    
    94   47   48 1    
    95   48  110 1    
    96   48  111 1    
    97   49   50 am   BACKBONE|DICT|INTERRES
    98   49  112 1    
    99   50   51 2    
   100   50   52 1    
   101   52   53 1    
   102   52   54 1    
   103   52  113 1    
   104   53  114 1    
   105   53  115 1    
   106   53  116 1    
   107   54   55 am   BACKBONE|DICT|INTERRES
   108   54  117 1    
   109   55   56 2    
   110   55   57 1    
   111   57   58 1    
   112   57   59 1    
   113   57  118 1    
   114   58  119 1    
   115   58  120 1    
   116   58  121 1    
   117   59   60 am   BACKBONE|DICT|INTERRES
   118   59  122 1    
   119   60   61 2    
   120   60   62 1    
   121   62   63 1    
   122   62   64 1    
   123   62  123 1    
   124   63  124 1    
   125   63  125 1    
   126   63  126 1    
   127   64   65 am   BACKBONE|DICT|INTERRES
   128   64  127 1    
   129   65   66 2    
@<TRIPOS>SUBSTRUCTURE
     1 UNK         1 GROUP             0       ****    0 ROOT    
