@<TRIPOS>MOLECULE
3R134
127   129    1
SMALL
USER_CHARGES


@<TRIPOS>ATOM
      1 CA         29.6837  -45.9776  -51.3885 C.3       0 UNK        -0.1968 
      2 C          31.1684  -45.9806  -51.7140 C.2       0 UNK         0.4852 
      3 O          31.5730  -46.5925  -52.7028 O.2       0 UNK        -0.5359 
      4 N          31.9796  -45.3210  -50.8744 N.am      1 UNK        -0.4300 
      5 CA         33.4410  -45.1975  -50.9734 C.3       1 UNK         0.0863 
      6 C6         33.9067  -44.3153  -52.1661 C.3       11 UNK        -0.0953 
      7 S7         33.2942  -42.6041  -51.9893 S.3       11 UNK        -0.2369 
      8 C8         33.2519  -42.0134  -53.7139 C.3       11 UNK         0.0226 
      9 C9         32.3008  -42.8073  -54.6019 C.ar      11 UNK        -0.0699 
     10 C10        32.7682  -43.3694  -55.7941 C.ar      11 UNK        -0.0804 
     11 C11        31.9135  -44.1145  -56.6114 C.ar      11 UNK        -0.0871 
     12 C12        30.5817  -44.2921  -56.2298 C.ar      11 UNK        -0.1008 
     13 C13        30.0938  -43.7165  -55.0545 C.ar      11 UNK        -0.0735 
     14 C14        30.9575  -42.9725  -54.2451 C.ar      11 UNK        -0.0945 
     15 C15        28.6412  -43.9175  -54.6495 C.3       11 UNK         0.0169 
     16 S16        27.5984  -42.4961  -55.0971 S.3       11 UNK        -0.2669 
     17 C17        27.4418  -42.6733  -56.9079 C.3       11 UNK        -0.0850 
     18 CA         26.0278  -43.1412  -57.3351 C.3       10 UNK         0.0855 
     19 C          25.8496  -43.0103  -58.8721 C.2       10 UNK         0.5543 
     20 N          25.3611  -41.8722  -59.3449 N.am      10 UNK        -0.7343 
     21 O          26.1903  -43.9104  -59.6370 O.2       10 UNK        -0.5027 
     22 N          25.7376  -44.5062  -56.8703 N.am      10 UNK        -0.4495 
     23 C          24.5090  -45.0341  -56.8026 C.2       10 UNK         0.4903 
     24 O          23.4800  -44.3899  -57.0120 O.2       10 UNK        -0.4860 
     25 CA         24.3855  -46.5304  -56.4608 C.3       9 UNK         0.0227 
     26 CB         23.8807  -47.3143  -57.6837 C.3       9 UNK        -0.1964 
     27 N          25.6312  -47.1399  -55.9809 N.am      9 UNK        -0.4231 
     28 C          26.0750  -47.0583  -54.7161 C.2       9 UNK         0.5014 
     29 O          25.5059  -46.3932  -53.8491 O.2       9 UNK        -0.5270 
     30 CA         27.3682  -47.8181  -54.3440 C.3       8 UNK         0.0284 
     31 CB         27.3150  -48.4057  -52.9172 C.3       8 UNK        -0.1977 
     32 N          27.7754  -48.8350  -55.3196 N.am      8 UNK        -0.4342 
     33 C          27.1250  -49.9593  -55.6648 C.2       8 UNK         0.5039 
     34 O          26.0782  -50.3349  -55.1335 O.2       8 UNK        -0.5547 
     35 CA         27.7205  -50.7782  -56.8355 C.3       7 UNK         0.0281 
     36 CB         26.6594  -51.6357  -57.5566 C.3       7 UNK        -0.1963 
     37 N          28.4618  -49.9647  -57.8109 N.am      7 UNK        -0.4444 
     38 C          28.0180  -48.8720  -58.4559 C.2       7 UNK         0.5104 
     39 O          26.8586  -48.4646  -58.3809 O.2       7 UNK        -0.5100 
     40 CA         29.0628  -48.0496  -59.2437 C.3       6 UNK         0.0396 
     41 CB         28.6685  -46.5603  -59.3431 C.3       6 UNK        -0.1801 
     42 N          30.4321  -48.1778  -58.7197 N.am      6 UNK        -0.4747 
     43 C          30.8347  -47.9532  -57.4584 C.2       6 UNK         0.5012 
     44 O          30.0848  -47.5753  -56.5557 O.2       6 UNK        -0.5003 
     45 CA         32.3005  -48.2962  -57.1306 C.3       5 UNK         0.0782 
     46 C46        33.0304  -47.1087  -56.4545 C.3       11 UNK        -0.0868 
     47 S47        33.7562  -45.9429  -57.6543 S.3       11 UNK        -0.2515 
     48 C48        32.4200  -44.7289  -57.9094 C.3       11 UNK         0.0199 
     49 N          32.3739  -49.4990  -56.2977 N.am      5 UNK        -0.4607 
     50 C          31.9028  -50.7177  -56.6019 C.2       4 UNK         0.5031 
     51 O          31.3332  -50.9924  -57.6588 O.2       4 UNK        -0.5119 
     52 CA         32.0921  -51.8154  -55.5388 C.3       4 UNK         0.0263 
     53 CB         33.3667  -52.6249  -55.8239 C.3       4 UNK        -0.1967 
     54 N          32.1599  -51.2697  -54.1810 N.am      4 UNK        -0.4237 
     55 C          31.1193  -50.7458  -53.5227 C.2       3 UNK         0.4908 
     56 O          29.9619  -50.8022  -53.9349 O.2       3 UNK        -0.5102 
     57 CA         31.4122  -49.9973  -52.2121 C.3       3 UNK         0.0241 
     58 CB         31.3607  -50.9431  -50.9970 C.3       3 UNK        -0.1971 
     59 N          32.6428  -49.1896  -52.2327 N.am      3 UNK        -0.4139 
     60 C          33.9247  -49.5887  -52.2350 C.2       2 UNK         0.5016 
     61 O          34.2636  -50.7713  -52.2926 O.2       2 UNK        -0.5319 
     62 CA         35.0215  -48.5030  -52.2151 C.3       2 UNK         0.0286 
     63 CB         35.8933  -48.5807  -53.4798 C.3       2 UNK        -0.1963 
     64 N          34.4962  -47.1397  -52.0769 N.am      2 UNK        -0.4790 
     65 C          34.1063  -46.5900  -50.9177 C.2       1 UNK         0.5024 
     66 O          34.2209  -47.1538  -49.8282 O.2       1 UNK        -0.4888 
     67 H67        29.4204  -46.8770  -50.8328 H         1 UNK         0.0892 
     68 H68        29.4024  -45.1078  -50.7953 H         1 UNK         0.0892 
     69 H69        29.0992  -45.9641  -52.3064 H         1 UNK         0.0892 
     70 H70        31.5751  -44.8669  -50.0676 H         1 UNK         0.3107 
     71 H71        33.7589  -44.6928  -50.0594 H         1 UNK         0.0773 
     72 H72        34.9962  -44.2752  -52.2172 H         1 UNK         0.0680 
     73 H73        33.5624  -44.7294  -53.1148 H         1 UNK         0.0680 
     74 H74        34.2675  -42.0360  -54.1120 H         1 UNK         0.0650 
     75 H75        32.9425  -40.9675  -53.7177 H         1 UNK         0.0650 
     76 H76        33.8017  -43.2394  -56.0852 H         1 UNK         0.1397 
     77 H77        29.9229  -44.8842  -56.8480 H         1 UNK         0.1363 
     78 H78        30.5873  -42.5314  -53.3298 H         1 UNK         0.1355 
     79 H79        28.2367  -44.8228  -55.1017 H         1 UNK         0.0707 
     80 H80        28.5812  -44.0592  -53.5704 H         1 UNK         0.0707 
     81 H81        27.6633  -41.6951  -57.3395 H         1 UNK         0.1034 
     82 H82        28.2035  -43.3460  -57.3008 H         1 UNK         0.1034 
     83 H83        25.3036  -42.4740  -56.8624 H         1 UNK         0.0482 
     84 H84        25.2530  -41.7625  -60.3412 H         1 UNK         0.3460 
     85 H85        25.0866  -41.1246  -58.7264 H         1 UNK         0.3460 
     86 H86        26.5277  -45.1111  -56.7155 H         1 UNK         0.2989 
     87 H87        23.6322  -46.6224  -55.6755 H         1 UNK         0.0559 
     88 H88        23.7980  -48.3802  -57.4697 H         1 UNK         0.0848 
     89 H89        24.5435  -47.1940  -58.5415 H         1 UNK         0.0848 
     90 H90        22.8927  -46.9672  -57.9889 H         1 UNK         0.0848 
     91 H91        26.1463  -47.7001  -56.6547 H         1 UNK         0.3144 
     92 H92        28.1667  -47.0761  -54.3574 H         1 UNK         0.0727 
     93 H93        28.2462  -48.9107  -52.6629 H         1 UNK         0.0790 
     94 H94        26.5031  -49.1244  -52.8048 H         1 UNK         0.0790 
     95 H95        27.1571  -47.6239  -52.1738 H         1 UNK         0.0790 
     96 H96        28.6283  -48.6051  -55.8255 H         1 UNK         0.3215 
     97 H97        28.4493  -51.4547  -56.3858 H         1 UNK         0.0863 
     98 H98        27.1019  -52.2191  -58.3639 H         1 UNK         0.0808 
     99 H99        25.8661  -51.0201  -57.9822 H         1 UNK         0.0808 
    100 H100       26.1909  -52.3410  -56.8691 H         1 UNK         0.0808 
    101 H101       29.4416  -50.2094  -57.9222 H         1 UNK         0.3118 
    102 H102       29.0774  -48.4610  -60.2537 H         1 UNK         0.0546 
    103 H103       28.5462  -46.1082  -58.3592 H         1 UNK         0.0828 
    104 H104       27.7213  -46.4391  -59.8707 H         1 UNK         0.0828 
    105 H105       29.4150  -45.9839  -59.8888 H         1 UNK         0.0828 
    106 H106       31.1082  -48.5433  -59.3772 H         1 UNK         0.3005 
    107 H107       32.8208  -48.5396  -58.0597 H         1 UNK         0.1257 
    108 H108       32.4030  -46.5946  -55.7235 H         1 UNK         0.0775 
    109 H109       33.8774  -47.4795  -55.8792 H         1 UNK         0.0775 
    110 H110       32.7900  -43.9321  -58.5560 H         1 UNK         0.0840 
    111 H111       31.6071  -45.2075  -58.4572 H         1 UNK         0.0840 
    112 H112       32.7820  -49.3757  -55.3846 H         1 UNK         0.2987 
    113 H113       31.2340  -52.4885  -55.5997 H         1 UNK         0.0785 
    114 H114       33.4797  -53.4474  -55.1173 H         1 UNK         0.0798 
    115 H115       34.2623  -52.0050  -55.7631 H         1 UNK         0.0798 
    116 H116       33.3372  -53.0598  -56.8240 H         1 UNK         0.0798 
    117 H117       33.0685  -51.2299  -53.7259 H         1 UNK         0.3079 
    118 H118       30.6050  -49.2736  -52.0906 H         1 UNK         0.0794 
    119 H119       30.3919  -51.4404  -50.9350 H         1 UNK         0.0786 
    120 H120       31.5055  -50.3974  -50.0646 H         1 UNK         0.0786 
    121 H121       32.1203  -51.7234  -51.0513 H         1 UNK         0.0786 
    122 H122       32.4701  -48.1874  -52.2953 H         1 UNK         0.3032 
    123 H123       35.6599  -48.7200  -51.3554 H         1 UNK         0.1094 
    124 H124       35.3115  -48.4227  -54.3862 H         1 UNK         0.0794 
    125 H125       36.6917  -47.8388  -53.4582 H         1 UNK         0.0794 
    126 H126       36.3681  -49.5591  -53.5673 H         1 UNK         0.0794 
    127 H127       34.3195  -46.6283  -52.9302 H         1 UNK         0.3016 
@<TRIPOS>BOND
     1    1    2 1    
     2    1   67 1    
     3    1   68 1    
     4    1   69 1    
     5    2    3 2    
     6    2    4 am   BACKBONE|DICT|INTERRES
     7    4    5 1    
     8    4   70 1    
     9    5    6 1    
    10    5   65 1    
    11    5   71 1    
    12    6    7 1    
    13    6   72 1    
    14    6   73 1    
    15    7    8 1    
    16    8    9 1    
    17    8   74 1    
    18    8   75 1    
    19    9   10 ar   
    20    9   14 ar   
    21   10   11 ar   
    22   10   76 1    
    23   11   12 ar   
    24   11   48 1    
    25   12   13 ar   
    26   12   77 1    
    27   13   14 ar   
    28   13   15 1    
    29   14   78 1    
    30   15   16 1    
    31   15   79 1    
    32   15   80 1    
    33   16   17 1    
    34   17   18 1    
    35   17   81 1    
    36   17   82 1    
    37   18   19 1    
    38   18   22 1    
    39   18   83 1    
    40   19   20 am   BACKBONE|DICT|INTERRES
    41   19   21 2    
    42   20   84 1    
    43   20   85 1    
    44   22   23 am   BACKBONE|DICT|INTERRES
    45   22   86 1    
    46   23   24 2    
    47   23   25 1    
    48   25   26 1    
    49   25   27 1    
    50   25   87 1    
    51   26   88 1    
    52   26   89 1    
    53   26   90 1    
    54   27   28 am   BACKBONE|DICT|INTERRES
    55   27   91 1    
    56   28   29 2    
    57   28   30 1    
    58   30   31 1    
    59   30   32 1    
    60   30   92 1    
    61   31   93 1    
    62   31   94 1    
    63   31   95 1    
    64   32   33 am   BACKBONE|DICT|INTERRES
    65   32   96 1    
    66   33   34 2    
    67   33   35 1    
    68   35   36 1    
    69   35   37 1    
    70   35   97 1    
    71   36   98 1    
    72   36   99 1    
    73   36  100 1    
    74   37   38 am   BACKBONE|DICT|INTERRES
    75   37  101 1    
    76   38   39 2    
    77   38   40 1    
    78   40   41 1    
    79   40   42 1    
    80   40  102 1    
    81   41  103 1    
    82   41  104 1    
    83   41  105 1    
    84   42   43 am   BACKBONE|DICT|INTERRES
    85   42  106 1    
    86   43   44 2    
    87   43   45 1    
    88   45   46 1    
    89   45   49 1    
    90   45  107 1    
    91   46   47 1    
    92   46  108 1    
    93   46  109 1    
    94   47   48 1    
    95   48  110 1    
    96   48  111 1    
    97   49   50 am   BACKBONE|DICT|INTERRES
    98   49  112 1    
    99   50   51 2    
   100   50   52 1    
   101   52   53 1    
   102   52   54 1    
   103   52  113 1    
   104   53  114 1    
   105   53  115 1    
   106   53  116 1    
   107   54   55 am   BACKBONE|DICT|INTERRES
   108   54  117 1    
   109   55   56 2    
   110   55   57 1    
   111   57   58 1    
   112   57   59 1    
   113   57  118 1    
   114   58  119 1    
   115   58  120 1    
   116   58  121 1    
   117   59   60 am   BACKBONE|DICT|INTERRES
   118   59  122 1    
   119   60   61 2    
   120   60   62 1    
   121   62   63 1    
   122   62   64 1    
   123   62  123 1    
   124   63  124 1    
   125   63  125 1    
   126   63  126 1    
   127   64   65 am   BACKBONE|DICT|INTERRES
   128   64  127 1    
   129   65   66 2    
@<TRIPOS>SUBSTRUCTURE
     1 UNK         1 GROUP             0       ****    0 ROOT    
