@<TRIPOS>MOLECULE
3R134
127   129    1
SMALL
USER_CHARGES


@<TRIPOS>ATOM
      1 CA         31.2388  -47.2955  -48.0951 C.3       0 UNK        -0.1968 
      2 C          32.2677  -47.3227  -49.2158 C.2       0 UNK         0.4852 
      3 O          33.3351  -47.9157  -49.0524 O.2       0 UNK        -0.5359 
      4 N          31.9552  -46.6860  -50.3522 N.am      1 UNK        -0.4300 
      5 CA         32.7830  -46.6719  -51.5586 C.3       1 UNK         0.0863 
      6 C6         32.4157  -45.4764  -52.4708 C.3       11 UNK        -0.0953 
      7 S7         33.6216  -45.2059  -53.8155 S.3       11 UNK        -0.2369 
      8 C8         33.5483  -43.3963  -54.0216 C.3       11 UNK         0.0226 
      9 C9         32.2989  -42.9428  -54.7687 C.ar      11 UNK        -0.0699 
     10 C10        31.0706  -42.8665  -54.1055 C.ar      11 UNK        -0.0804 
     11 C11        29.9277  -42.4263  -54.7752 C.ar      11 UNK        -0.0871 
     12 C12        30.0209  -42.0364  -56.1142 C.ar      11 UNK        -0.1008 
     13 C13        31.2433  -42.0963  -56.7932 C.ar      11 UNK        -0.0735 
     14 C14        32.3761  -42.5612  -56.1138 C.ar      11 UNK        -0.0945 
     15 C15        31.3773  -41.5741  -58.2235 C.3       11 UNK         0.0169 
     16 S16        29.9870  -42.0069  -59.3263 S.3       11 UNK        -0.2669 
     17 C17        30.4416  -43.6955  -59.8433 C.3       11 UNK        -0.0850 
     18 CA         29.2120  -44.5935  -60.1495 C.3       10 UNK         0.0855 
     19 C          29.6667  -45.9755  -60.7106 C.2       10 UNK         0.5543 
     20 N          29.3393  -47.1036  -60.0915 N.am      10 UNK        -0.7343 
     21 O          30.3320  -46.0220  -61.7424 O.2       10 UNK        -0.5027 
     22 N          28.2872  -44.6602  -59.0074 N.am      10 UNK        -0.4495 
     23 C          27.0170  -45.0735  -59.0638 C.2       10 UNK         0.4903 
     24 O          26.4195  -45.3646  -60.1017 O.2       10 UNK        -0.4860 
     25 CA         26.2985  -45.1932  -57.7099 C.3       9 UNK         0.0227 
     26 CB         25.1876  -44.1393  -57.5793 C.3       9 UNK        -0.1964 
     27 N          25.7476  -46.5300  -57.4638 N.am      9 UNK        -0.4231 
     28 C          26.4556  -47.6671  -57.4861 C.2       9 UNK         0.5014 
     29 O          27.6475  -47.7308  -57.7930 O.2       9 UNK        -0.5270 
     30 CA         25.7169  -48.9529  -57.1072 C.3       8 UNK         0.0284 
     31 CB         25.2729  -49.7074  -58.3758 C.3       8 UNK        -0.1977 
     32 N          26.6147  -49.7760  -56.2966 N.am      8 UNK        -0.4342 
     33 C          26.2582  -50.8493  -55.5790 C.2       8 UNK         0.5039 
     34 O          25.1021  -51.2669  -55.4987 O.2       8 UNK        -0.5547 
     35 CA         27.3702  -51.5755  -54.8089 C.3       7 UNK         0.0281 
     36 CB         28.4331  -52.1461  -55.7650 C.3       7 UNK        -0.1963 
     37 N          28.0048  -50.6622  -53.8624 N.am      7 UNK        -0.4444 
     38 C          27.8177  -50.6601  -52.5360 C.2       7 UNK         0.5104 
     39 O          27.1272  -51.4860  -51.9376 O.2       7 UNK        -0.5100 
     40 CA         28.5186  -49.5466  -51.7294 C.3       6 UNK         0.0396 
     41 CB         29.8356  -50.0708  -51.1423 C.3       6 UNK        -0.1801 
     42 N          28.7683  -48.3331  -52.5198 N.am      6 UNK        -0.4747 
     43 C          27.7834  -47.5255  -52.9430 C.2       6 UNK         0.5012 
     44 O          26.6131  -47.6607  -52.5823 O.2       6 UNK        -0.5003 
     45 CA         28.1012  -46.3977  -53.9506 C.3       5 UNK         0.0782 
     46 C46        28.0081  -45.0062  -53.2707 C.3       11 UNK        -0.0868 
     47 S47        27.5015  -43.7150  -54.4545 S.3       11 UNK        -0.2515 
     48 C48        28.5988  -42.3255  -54.0445 C.3       11 UNK         0.0199 
     49 N          29.3332  -46.5277  -54.7433 N.am      5 UNK        -0.4607 
     50 C          29.7292  -47.5800  -55.4756 C.2       4 UNK         0.5031 
     51 O          29.2116  -48.6951  -55.4207 O.2       4 UNK        -0.5119 
     52 CA         30.8673  -47.3490  -56.4756 C.3       4 UNK         0.0263 
     53 CB         31.1576  -45.8637  -56.7668 C.3       4 UNK        -0.1967 
     54 N          32.0822  -48.0137  -56.0147 N.am      4 UNK        -0.4237 
     55 C          33.0559  -48.4478  -56.8285 C.2       3 UNK         0.4908 
     56 O          32.9799  -48.4067  -58.0575 O.2       3 UNK        -0.5102 
     57 CA         34.3559  -48.9862  -56.2001 C.3       3 UNK         0.0241 
     58 CB         35.5172  -48.0118  -56.4640 C.3       3 UNK        -0.1971 
     59 N          34.2623  -49.2148  -54.7598 N.am      3 UNK        -0.4139 
     60 C          33.7119  -50.2912  -54.1850 C.2       2 UNK         0.5016 
     61 O          33.2668  -51.2537  -54.8102 O.2       2 UNK        -0.5319 
     62 CA         33.6327  -50.2833  -52.6469 C.3       2 UNK         0.0286 
     63 CB         34.8144  -51.0603  -52.0450 C.3       2 UNK        -0.1963 
     64 N          33.5881  -48.9398  -52.0520 N.am      2 UNK        -0.4790 
     65 C          32.6397  -48.0219  -52.2844 C.2       1 UNK         0.5024 
     66 O          31.6798  -48.2074  -53.0346 O.2       1 UNK        -0.4888 
     67 H67        30.9429  -48.3112  -47.8340 H         1 UNK         0.0892 
     68 H68        31.6626  -46.8250  -47.2082 H         1 UNK         0.0892 
     69 H69        30.3421  -46.7436  -48.3764 H         1 UNK         0.0892 
     70 H70        31.0569  -46.2321  -50.4319 H         1 UNK         0.3107 
     71 H71        33.8251  -46.5476  -51.2550 H         1 UNK         0.0773 
     72 H72        32.3825  -44.5725  -51.8614 H         1 UNK         0.0680 
     73 H73        31.4197  -45.5910  -52.9011 H         1 UNK         0.0680 
     74 H74        34.4411  -43.0787  -54.5619 H         1 UNK         0.0650 
     75 H75        33.5997  -42.9084  -53.0473 H         1 UNK         0.0650 
     76 H76        31.0040  -43.1349  -53.0615 H         1 UNK         0.1397 
     77 H77        29.1407  -41.6638  -56.6203 H         1 UNK         0.1363 
     78 H78        33.3288  -42.5988  -56.6243 H         1 UNK         0.1355 
     79 H79        31.4463  -40.4866  -58.1763 H         1 UNK         0.0707 
     80 H80        32.3086  -41.9178  -58.6767 H         1 UNK         0.0707 
     81 H81        31.0771  -43.6058  -60.7266 H         1 UNK         0.1034 
     82 H82        31.0641  -44.1508  -59.0737 H         1 UNK         0.1034 
     83 H83        28.6643  -44.1176  -60.9653 H         1 UNK         0.0482 
     84 H84        28.7594  -47.1077  -59.2578 H         1 UNK         0.3460 
     85 H85        29.6502  -47.9784  -60.4809 H         1 UNK         0.3460 
     86 H86        28.6807  -44.4151  -58.1121 H         1 UNK         0.2989 
     87 H87        27.0309  -45.0124  -56.9234 H         1 UNK         0.0559 
     88 H88        25.5839  -43.1354  -57.7381 H         1 UNK         0.0848 
     89 H89        24.7407  -44.1533  -56.5850 H         1 UNK         0.0848 
     90 H90        24.3938  -44.2963  -58.3107 H         1 UNK         0.0848 
     91 H91        24.7623  -46.5767  -57.2479 H         1 UNK         0.3144 
     92 H92        24.8410  -48.6986  -56.5068 H         1 UNK         0.0727 
     93 H93        26.1292  -50.0164  -58.9769 H         1 UNK         0.0790 
     94 H94        24.6426  -49.0776  -59.0050 H         1 UNK         0.0790 
     95 H95        24.6950  -50.5991  -58.1335 H         1 UNK         0.0790 
     96 H96        27.5810  -49.4530  -56.2773 H         1 UNK         0.3215 
     97 H97        26.9147  -52.4146  -54.2782 H         1 UNK         0.0863 
     98 H98        29.1746  -52.7321  -55.2218 H         1 UNK         0.0808 
     99 H99        28.9642  -51.3619  -56.3061 H         1 UNK         0.0808 
    100 H100       27.9781  -52.8051  -56.5056 H         1 UNK         0.0808 
    101 H101       28.5588  -49.9120  -54.2743 H         1 UNK         0.3118 
    102 H102       27.8655  -49.2804  -50.8956 H         1 UNK         0.0546 
    103 H103       30.5114  -50.4033  -51.9286 H         1 UNK         0.0828 
    104 H104       29.6577  -50.9234  -50.4857 H         1 UNK         0.0828 
    105 H105       30.3436  -49.3087  -50.5532 H         1 UNK         0.0828 
    106 H106       29.7138  -48.1931  -52.8663 H         1 UNK         0.3005 
    107 H107       27.2878  -46.4682  -54.6761 H         1 UNK         0.1257 
    108 H108       28.9547  -44.7444  -52.7957 H         1 UNK         0.0775 
    109 H109       27.2611  -44.9945  -52.4739 H         1 UNK         0.0775 
    110 H110       28.1035  -41.3960  -54.3291 H         1 UNK         0.0840 
    111 H111       28.7433  -42.2692  -52.9644 H         1 UNK         0.0840 
    112 H112       29.8464  -45.6674  -54.8662 H         1 UNK         0.2987 
    113 H113       30.5374  -47.8157  -57.4065 H         1 UNK         0.0785 
    114 H114       30.2564  -45.3333  -57.0715 H         1 UNK         0.0798 
    115 H115       31.8849  -45.7590  -57.5712 H         1 UNK         0.0798 
    116 H116       31.5639  -45.3567  -55.8946 H         1 UNK         0.0798 
    117 H117       32.1628  -48.1377  -55.0104 H         1 UNK         0.3079 
    118 H118       34.5866  -49.9338  -56.6918 H         1 UNK         0.0794 
    119 H119       35.6543  -47.8460  -57.5335 H         1 UNK         0.0786 
    120 H120       36.4589  -48.4006  -56.0760 H         1 UNK         0.0786 
    121 H121       35.3391  -47.0384  -56.0044 H         1 UNK         0.0786 
    122 H122       34.6016  -48.4776  -54.1590 H         1 UNK         0.3032 
    123 H123       32.7131  -50.8021  -52.3735 H         1 UNK         0.1094 
    124 H124       34.7211  -51.1488  -50.9624 H         1 UNK         0.0794 
    125 H125       34.8616  -52.0734  -52.4475 H         1 UNK         0.0794 
    126 H126       35.7683  -50.5783  -52.2629 H         1 UNK         0.0794 
    127 H127       34.3062  -48.7218  -51.3740 H         1 UNK         0.3016 
@<TRIPOS>BOND
     1    1    2 1    
     2    1   67 1    
     3    1   68 1    
     4    1   69 1    
     5    2    3 2    
     6    2    4 am   BACKBONE|DICT|INTERRES
     7    4    5 1    
     8    4   70 1    
     9    5    6 1    
    10    5   65 1    
    11    5   71 1    
    12    6    7 1    
    13    6   72 1    
    14    6   73 1    
    15    7    8 1    
    16    8    9 1    
    17    8   74 1    
    18    8   75 1    
    19    9   10 ar   
    20    9   14 ar   
    21   10   11 ar   
    22   10   76 1    
    23   11   12 ar   
    24   11   48 1    
    25   12   13 ar   
    26   12   77 1    
    27   13   14 ar   
    28   13   15 1    
    29   14   78 1    
    30   15   16 1    
    31   15   79 1    
    32   15   80 1    
    33   16   17 1    
    34   17   18 1    
    35   17   81 1    
    36   17   82 1    
    37   18   19 1    
    38   18   22 1    
    39   18   83 1    
    40   19   20 am   BACKBONE|DICT|INTERRES
    41   19   21 2    
    42   20   84 1    
    43   20   85 1    
    44   22   23 am   BACKBONE|DICT|INTERRES
    45   22   86 1    
    46   23   24 2    
    47   23   25 1    
    48   25   26 1    
    49   25   27 1    
    50   25   87 1    
    51   26   88 1    
    52   26   89 1    
    53   26   90 1    
    54   27   28 am   BACKBONE|DICT|INTERRES
    55   27   91 1    
    56   28   29 2    
    57   28   30 1    
    58   30   31 1    
    59   30   32 1    
    60   30   92 1    
    61   31   93 1    
    62   31   94 1    
    63   31   95 1    
    64   32   33 am   BACKBONE|DICT|INTERRES
    65   32   96 1    
    66   33   34 2    
    67   33   35 1    
    68   35   36 1    
    69   35   37 1    
    70   35   97 1    
    71   36   98 1    
    72   36   99 1    
    73   36  100 1    
    74   37   38 am   BACKBONE|DICT|INTERRES
    75   37  101 1    
    76   38   39 2    
    77   38   40 1    
    78   40   41 1    
    79   40   42 1    
    80   40  102 1    
    81   41  103 1    
    82   41  104 1    
    83   41  105 1    
    84   42   43 am   BACKBONE|DICT|INTERRES
    85   42  106 1    
    86   43   44 2    
    87   43   45 1    
    88   45   46 1    
    89   45   49 1    
    90   45  107 1    
    91   46   47 1    
    92   46  108 1    
    93   46  109 1    
    94   47   48 1    
    95   48  110 1    
    96   48  111 1    
    97   49   50 am   BACKBONE|DICT|INTERRES
    98   49  112 1    
    99   50   51 2    
   100   50   52 1    
   101   52   53 1    
   102   52   54 1    
   103   52  113 1    
   104   53  114 1    
   105   53  115 1    
   106   53  116 1    
   107   54   55 am   BACKBONE|DICT|INTERRES
   108   54  117 1    
   109   55   56 2    
   110   55   57 1    
   111   57   58 1    
   112   57   59 1    
   113   57  118 1    
   114   58  119 1    
   115   58  120 1    
   116   58  121 1    
   117   59   60 am   BACKBONE|DICT|INTERRES
   118   59  122 1    
   119   60   61 2    
   120   60   62 1    
   121   62   63 1    
   122   62   64 1    
   123   62  123 1    
   124   63  124 1    
   125   63  125 1    
   126   63  126 1    
   127   64   65 am   BACKBONE|DICT|INTERRES
   128   64  127 1    
   129   65   66 2    
@<TRIPOS>SUBSTRUCTURE
     1 UNK         1 GROUP             0       ****    0 ROOT    
