@<TRIPOS>MOLECULE
3R134
127   129    1
SMALL
USER_CHARGES


@<TRIPOS>ATOM
      1 CA         33.1148  -45.7237  -48.5085 C.3       0 UNK        -0.1968 
      2 C          33.4414  -45.5752  -49.9872 C.2       0 UNK         0.4852 
      3 O          32.6588  -46.0184  -50.8262 O.2       0 UNK        -0.5359 
      4 N          34.5899  -44.9586  -50.3010 N.am      1 UNK        -0.4300 
      5 CA         35.1343  -44.6890  -51.6405 C.3       1 UNK         0.0863 
      6 C6         34.2109  -43.8489  -52.5649 C.3       11 UNK        -0.0953 
      7 S7         33.7375  -42.2501  -51.8279 S.3       11 UNK        -0.2369 
      8 C8         33.1452  -41.3426  -53.2945 C.3       11 UNK         0.0226 
      9 C9         32.0457  -42.0827  -54.0488 C.ar      11 UNK        -0.0699 
     10 C10        30.8687  -42.4631  -53.3946 C.ar      11 UNK        -0.0804 
     11 C11        29.8698  -43.1596  -54.0805 C.ar      11 UNK        -0.0871 
     12 C12        30.0329  -43.4325  -55.4393 C.ar      11 UNK        -0.1008 
     13 C13        31.2056  -43.0666  -56.1057 C.ar      11 UNK        -0.0735 
     14 C14        32.2094  -42.3915  -55.4041 C.ar      11 UNK        -0.0945 
     15 C15        31.3768  -43.3929  -57.5834 C.3       11 UNK         0.0169 
     16 S16        31.0287  -45.1495  -57.9273 S.3       11 UNK        -0.2669 
     17 C17        30.0829  -45.0440  -59.4833 C.3       11 UNK        -0.0850 
     18 CA         28.6218  -44.5434  -59.3052 C.3       10 UNK         0.0855 
     19 C          27.9020  -44.4500  -60.6849 C.2       10 UNK         0.5543 
     20 N          26.7989  -45.1505  -60.9240 N.am      10 UNK        -0.7343 
     21 O          28.3571  -43.7176  -61.5598 O.2       10 UNK        -0.5027 
     22 N          27.8877  -45.3010  -58.2783 N.am      10 UNK        -0.4495 
     23 C          26.7684  -44.8764  -57.6743 C.2       10 UNK         0.4903 
     24 O          26.2987  -43.7474  -57.8217 O.2       10 UNK        -0.4860 
     25 CA         26.0504  -45.8952  -56.7659 C.3       9 UNK         0.0227 
     26 CB         24.5656  -45.5509  -56.5261 C.3       9 UNK        -0.1964 
     27 N          26.2008  -47.2798  -57.2356 N.am      9 UNK        -0.4231 
     28 C          25.8272  -47.7718  -58.4269 C.2       9 UNK         0.5014 
     29 O          25.2043  -47.1214  -59.2674 O.2       9 UNK        -0.5270 
     30 CA         26.2692  -49.1985  -58.7865 C.3       8 UNK         0.0284 
     31 CB         27.3870  -49.1482  -59.8445 C.3       8 UNK        -0.1977 
     32 N          26.7527  -49.9729  -57.6367 N.am      8 UNK        -0.4342 
     33 C          26.2624  -51.1654  -57.2728 C.2       8 UNK         0.5039 
     34 O          25.2764  -51.6901  -57.7933 O.2       8 UNK        -0.5547 
     35 CA         27.0099  -51.9339  -56.1711 C.3       7 UNK         0.0281 
     36 CB         28.2188  -52.6804  -56.7584 C.3       7 UNK        -0.1963 
     37 N          27.4459  -51.1062  -55.0454 N.am      7 UNK        -0.4444 
     38 C          26.6232  -50.6370  -54.0970 C.2       7 UNK         0.5104 
     39 O          25.3975  -50.7474  -54.1327 O.2       7 UNK        -0.5100 
     40 CA         27.2828  -49.9538  -52.8888 C.3       6 UNK         0.0396 
     41 CB         27.8850  -50.9962  -51.9324 C.3       6 UNK        -0.1801 
     42 N          28.3197  -49.0110  -53.3034 N.am      6 UNK        -0.4747 
     43 C          28.0708  -47.7541  -53.6964 C.2       6 UNK         0.5012 
     44 O          26.9459  -47.2549  -53.6970 O.2       6 UNK        -0.5003 
     45 CA         29.2681  -46.9312  -54.2210 C.3       5 UNK         0.0782 
     46 C46        30.0015  -46.1668  -53.0890 C.3       11 UNK        -0.0868 
     47 S47        28.9908  -44.9642  -52.1464 S.3       11 UNK        -0.2515 
     48 C48        28.6252  -43.6475  -53.3557 C.3       11 UNK         0.0199 
     49 N          30.2014  -47.7675  -54.9870 N.am      5 UNK        -0.4607 
     50 C          29.9007  -48.3667  -56.1501 C.2       4 UNK         0.5031 
     51 O          28.8247  -48.2164  -56.7264 O.2       4 UNK        -0.5119 
     52 CA         30.9231  -49.3440  -56.7607 C.3       4 UNK         0.0263 
     53 CB         31.7654  -48.6486  -57.8389 C.3       4 UNK        -0.1967 
     54 N          31.8119  -49.9689  -55.7815 N.am      4 UNK        -0.4237 
     55 C          31.4214  -50.7303  -54.7496 C.2       3 UNK         0.4908 
     56 O          30.2534  -51.0689  -54.5565 O.2       3 UNK        -0.5102 
     57 CA         32.5025  -51.1277  -53.7262 C.3       3 UNK         0.0241 
     58 CB         33.0049  -52.5523  -54.0082 C.3       3 UNK        -0.1971 
     59 N          33.6482  -50.2062  -53.6622 N.am      3 UNK        -0.4139 
     60 C          33.5659  -48.8942  -53.3958 C.2       2 UNK         0.5016 
     61 O          32.5015  -48.3041  -53.1952 O.2       2 UNK        -0.5319 
     62 CA         34.8740  -48.0976  -53.4392 C.3       2 UNK         0.0286 
     63 CB         35.2827  -47.8230  -54.9011 C.3       2 UNK        -0.1963 
     64 N          34.6690  -46.8390  -52.7280 N.am      2 UNK        -0.4790 
     65 C          35.6128  -45.9765  -52.3401 C.2       1 UNK         0.5024 
     66 O          36.8188  -46.1616  -52.5107 O.2       1 UNK        -0.4888 
     67 H67        33.8819  -45.2816  -47.8728 H         1 UNK         0.0892 
     68 H68        33.0245  -46.7782  -48.2492 H         1 UNK         0.0892 
     69 H69        32.1666  -45.2353  -48.2853 H         1 UNK         0.0892 
     70 H70        35.1817  -44.6426  -49.5455 H         1 UNK         0.3107 
     71 H71        36.0311  -44.0916  -51.4667 H         1 UNK         0.0773 
     72 H72        34.7127  -43.6500  -53.5139 H         1 UNK         0.0680 
     73 H73        33.2976  -44.3927  -52.8127 H         1 UNK         0.0680 
     74 H74        32.7646  -40.3710  -52.9770 H         1 UNK         0.0650 
     75 H75        33.9967  -41.1420  -53.9465 H         1 UNK         0.0650 
     76 H76        30.7448  -42.2468  -52.3422 H         1 UNK         0.1397 
     77 H77        29.2575  -43.9564  -55.9802 H         1 UNK         0.1363 
     78 H78        33.1183  -42.1037  -55.9145 H         1 UNK         0.1355 
     79 H79        32.3902  -43.1684  -57.9194 H         1 UNK         0.0707 
     80 H80        30.7118  -42.7476  -58.1571 H         1 UNK         0.0707 
     81 H81        30.0847  -46.0357  -59.9393 H         1 UNK         0.1034 
     82 H82        30.6303  -44.3979  -60.1726 H         1 UNK         0.1034 
     83 H83        28.6770  -43.5141  -58.9479 H         1 UNK         0.0482 
     84 H84        26.3543  -45.0667  -61.8241 H         1 UNK         0.3460 
     85 H85        26.3837  -45.7449  -60.2160 H         1 UNK         0.3460 
     86 H86        28.2238  -46.2340  -58.0829 H         1 UNK         0.2989 
     87 H87        26.5582  -45.8357  -55.8050 H         1 UNK         0.0559 
     88 H88        23.9993  -45.5232  -57.4574 H         1 UNK         0.0848 
     89 H89        24.4617  -44.5733  -56.0539 H         1 UNK         0.0848 
     90 H90        24.0932  -46.2786  -55.8663 H         1 UNK         0.0848 
     91 H91        26.7946  -47.8637  -56.6600 H         1 UNK         0.3144 
     92 H92        25.3998  -49.6810  -59.2374 H         1 UNK         0.0727 
     93 H93        27.6628  -50.1496  -60.1753 H         1 UNK         0.0790 
     94 H94        28.2858  -48.6633  -59.4611 H         1 UNK         0.0790 
     95 H95        27.0688  -48.5933  -60.7284 H         1 UNK         0.0790 
     96 H96        27.5701  -49.6025  -57.1603 H         1 UNK         0.3215 
     97 H97        26.3209  -52.6862  -55.7795 H         1 UNK         0.0863 
     98 H98        28.7126  -53.2921  -56.0030 H         1 UNK         0.0808 
     99 H99        28.9597  -51.9954  -57.1688 H         1 UNK         0.0808 
    100 H100       27.9109  -53.3474  -57.5648 H         1 UNK         0.0808 
    101 H101       28.4505  -51.0121  -54.9050 H         1 UNK         0.3118 
    102 H102       26.5065  -49.4145  -52.3414 H         1 UNK         0.0546 
    103 H103       27.1229  -51.7002  -51.5954 H         1 UNK         0.0828 
    104 H104       28.3025  -50.5227  -51.0438 H         1 UNK         0.0828 
    105 H105       28.6775  -51.5776  -52.4048 H         1 UNK         0.0828 
    106 H106       29.2605  -49.3731  -53.3907 H         1 UNK         0.3005 
    107 H107       28.8656  -46.1935  -54.9166 H         1 UNK         0.1257 
    108 H108       30.8704  -45.6446  -53.4926 H         1 UNK         0.0775 
    109 H109       30.4082  -46.8769  -52.3668 H         1 UNK         0.0775 
    110 H110       27.8798  -44.0148  -54.0629 H         1 UNK         0.0840 
    111 H111       28.1601  -42.8092  -52.8351 H         1 UNK         0.0840 
    112 H112       31.0938  -47.9590  -54.5400 H         1 UNK         0.2987 
    113 H113       30.3557  -50.1408  -57.2428 H         1 UNK         0.0785 
    114 H114       31.1275  -48.1925  -58.5973 H         1 UNK         0.0798 
    115 H115       32.4182  -49.3553  -58.3516 H         1 UNK         0.0798 
    116 H116       32.3887  -47.8592  -57.4170 H         1 UNK         0.0798 
    117 H117       32.7927  -49.7448  -55.8559 H         1 UNK         0.3079 
    118 H118       32.0258  -51.1210  -52.7438 H         1 UNK         0.0794 
    119 H119       33.5220  -52.6167  -54.9664 H         1 UNK         0.0786 
    120 H120       32.1749  -53.2602  -54.0377 H         1 UNK         0.0786 
    121 H121       33.6899  -52.8935  -53.2317 H         1 UNK         0.0786 
    122 H122       34.5585  -50.6107  -53.8316 H         1 UNK         0.3032 
    123 H123       35.6531  -48.6697  -52.9307 H         1 UNK         0.1094 
    124 H124       36.2252  -47.2788  -54.9599 H         1 UNK         0.0794 
    125 H125       35.4192  -48.7516  -55.4563 H         1 UNK         0.0794 
    126 H126       34.5267  -47.2359  -55.4249 H         1 UNK         0.0794 
    127 H127       33.7040  -46.6610  -52.4505 H         1 UNK         0.3016 
@<TRIPOS>BOND
     1    1    2 1    
     2    1   67 1    
     3    1   68 1    
     4    1   69 1    
     5    2    3 2    
     6    2    4 am   BACKBONE|DICT|INTERRES
     7    4    5 1    
     8    4   70 1    
     9    5    6 1    
    10    5   65 1    
    11    5   71 1    
    12    6    7 1    
    13    6   72 1    
    14    6   73 1    
    15    7    8 1    
    16    8    9 1    
    17    8   74 1    
    18    8   75 1    
    19    9   10 ar   
    20    9   14 ar   
    21   10   11 ar   
    22   10   76 1    
    23   11   12 ar   
    24   11   48 1    
    25   12   13 ar   
    26   12   77 1    
    27   13   14 ar   
    28   13   15 1    
    29   14   78 1    
    30   15   16 1    
    31   15   79 1    
    32   15   80 1    
    33   16   17 1    
    34   17   18 1    
    35   17   81 1    
    36   17   82 1    
    37   18   19 1    
    38   18   22 1    
    39   18   83 1    
    40   19   20 am   BACKBONE|DICT|INTERRES
    41   19   21 2    
    42   20   84 1    
    43   20   85 1    
    44   22   23 am   BACKBONE|DICT|INTERRES
    45   22   86 1    
    46   23   24 2    
    47   23   25 1    
    48   25   26 1    
    49   25   27 1    
    50   25   87 1    
    51   26   88 1    
    52   26   89 1    
    53   26   90 1    
    54   27   28 am   BACKBONE|DICT|INTERRES
    55   27   91 1    
    56   28   29 2    
    57   28   30 1    
    58   30   31 1    
    59   30   32 1    
    60   30   92 1    
    61   31   93 1    
    62   31   94 1    
    63   31   95 1    
    64   32   33 am   BACKBONE|DICT|INTERRES
    65   32   96 1    
    66   33   34 2    
    67   33   35 1    
    68   35   36 1    
    69   35   37 1    
    70   35   97 1    
    71   36   98 1    
    72   36   99 1    
    73   36  100 1    
    74   37   38 am   BACKBONE|DICT|INTERRES
    75   37  101 1    
    76   38   39 2    
    77   38   40 1    
    78   40   41 1    
    79   40   42 1    
    80   40  102 1    
    81   41  103 1    
    82   41  104 1    
    83   41  105 1    
    84   42   43 am   BACKBONE|DICT|INTERRES
    85   42  106 1    
    86   43   44 2    
    87   43   45 1    
    88   45   46 1    
    89   45   49 1    
    90   45  107 1    
    91   46   47 1    
    92   46  108 1    
    93   46  109 1    
    94   47   48 1    
    95   48  110 1    
    96   48  111 1    
    97   49   50 am   BACKBONE|DICT|INTERRES
    98   49  112 1    
    99   50   51 2    
   100   50   52 1    
   101   52   53 1    
   102   52   54 1    
   103   52  113 1    
   104   53  114 1    
   105   53  115 1    
   106   53  116 1    
   107   54   55 am   BACKBONE|DICT|INTERRES
   108   54  117 1    
   109   55   56 2    
   110   55   57 1    
   111   57   58 1    
   112   57   59 1    
   113   57  118 1    
   114   58  119 1    
   115   58  120 1    
   116   58  121 1    
   117   59   60 am   BACKBONE|DICT|INTERRES
   118   59  122 1    
   119   60   61 2    
   120   60   62 1    
   121   62   63 1    
   122   62   64 1    
   123   62  123 1    
   124   63  124 1    
   125   63  125 1    
   126   63  126 1    
   127   64   65 am   BACKBONE|DICT|INTERRES
   128   64  127 1    
   129   65   66 2    
@<TRIPOS>SUBSTRUCTURE
     1 UNK         1 GROUP             0       ****    0 ROOT    
