@<TRIPOS>MOLECULE
3R134
127   129    1
SMALL
USER_CHARGES


@<TRIPOS>ATOM
      1 CA         35.3467  -44.3395  -47.4999 C.3       0 UNK        -0.1968 
      2 C          35.6681  -44.4990  -48.9786 C.2       0 UNK         0.4852 
      3 O          36.8235  -44.3358  -49.3736 O.2       0 UNK        -0.5359 
      4 N          34.6552  -44.8155  -49.7971 N.am      1 UNK        -0.4300 
      5 CA         34.7747  -45.0002  -51.2504 C.3       1 UNK         0.0863 
      6 C6         33.3979  -44.9391  -51.9572 C.3       11 UNK        -0.0953 
      7 S7         32.5695  -43.3327  -51.7072 S.3       11 UNK        -0.2369 
      8 C8         33.1157  -42.4015  -53.1736 C.3       11 UNK         0.0226 
      9 C9         32.2904  -42.7448  -54.4049 C.ar      11 UNK        -0.0699 
     10 C10        32.7496  -43.6909  -55.3268 C.ar      11 UNK        -0.0804 
     11 C11        31.9844  -44.0121  -56.4513 C.ar      11 UNK        -0.0871 
     12 C12        30.7714  -43.3541  -56.6710 C.ar      11 UNK        -0.1008 
     13 C13        30.2983  -42.4130  -55.7537 C.ar      11 UNK        -0.0735 
     14 C14        31.0632  -42.1101  -54.6234 C.ar      11 UNK        -0.0945 
     15 C15        28.9661  -41.7181  -55.9894 C.3       11 UNK         0.0169 
     16 S16        27.6015  -42.4945  -55.0624 S.3       11 UNK        -0.2669 
     17 C17        27.3629  -44.0908  -55.9195 C.3       11 UNK        -0.0850 
     18 CA         26.3505  -43.9950  -57.0941 C.3       10 UNK         0.0855 
     19 C          27.0411  -43.6456  -58.4372 C.2       10 UNK         0.5543 
     20 N          26.7317  -42.4963  -59.0213 N.am      10 UNK        -0.7343 
     21 O          27.8809  -44.3941  -58.9315 O.2       10 UNK        -0.5027 
     22 N          25.5720  -45.2309  -57.2340 N.am      10 UNK        -0.4495 
     23 C          24.3271  -45.2788  -57.7281 C.2       10 UNK         0.4903 
     24 O          23.6882  -44.2800  -58.0649 O.2       10 UNK        -0.4860 
     25 CA         23.6801  -46.6725  -57.8413 C.3       9 UNK         0.0227 
     26 CB         22.3664  -46.6718  -58.6527 C.3       9 UNK        -0.1964 
     27 N          24.6058  -47.6943  -58.3379 N.am      9 UNK        -0.4231 
     28 C          25.2176  -47.7413  -59.5334 C.2       9 UNK         0.5014 
     29 O          25.0346  -46.9163  -60.4295 O.2       9 UNK        -0.5270 
     30 CA         26.2087  -48.8976  -59.7805 C.3       8 UNK         0.0284 
     31 CB         27.5932  -48.3582  -60.1842 C.3       8 UNK        -0.1977 
     32 N          26.3617  -49.7601  -58.6062 N.am      8 UNK        -0.4342 
     33 C          25.6275  -50.8497  -58.3418 C.2       8 UNK         0.5039 
     34 O          24.7939  -51.3182  -59.1171 O.2       8 UNK        -0.5547 
     35 CA         25.8310  -51.5104  -56.9650 C.3       7 UNK         0.0281 
     36 CB         26.7819  -52.7126  -57.0795 C.3       7 UNK        -0.1963 
     37 N          26.3358  -50.5768  -55.9504 N.am      7 UNK        -0.4444 
     38 C          25.6115  -49.5769  -55.4201 C.2       7 UNK         0.5104 
     39 O          24.4327  -49.3708  -55.7051 O.2       7 UNK        -0.5100 
     40 CA         26.3309  -48.5956  -54.4733 C.3       6 UNK         0.0396 
     41 CB         26.1992  -49.0610  -53.0155 C.3       6 UNK        -0.1801 
     42 N          27.7469  -48.4139  -54.8012 N.am      6 UNK        -0.4747 
     43 C          28.2108  -47.9460  -55.9695 C.2       6 UNK         0.5012 
     44 O          27.4757  -47.4748  -56.8374 O.2       6 UNK        -0.5003 
     45 CA         29.7244  -48.0814  -56.2481 C.3       5 UNK         0.0782 
     46 C46        30.3947  -46.6916  -56.2883 C.3       11 UNK        -0.0868 
     47 S47        32.1682  -46.7624  -56.7134 S.3       11 UNK        -0.2515 
     48 C48        32.4444  -45.1006  -57.4098 C.3       11 UNK         0.0199 
     49 N          30.4077  -49.0079  -55.3329 N.am      5 UNK        -0.4607 
     50 C          30.1937  -50.3275  -55.2638 C.2       4 UNK         0.5031 
     51 O          29.3342  -50.9000  -55.9355 O.2       4 UNK        -0.5119 
     52 CA         31.0582  -51.1265  -54.2681 C.3       4 UNK         0.0263 
     53 CB         30.8183  -52.6449  -54.3708 C.3       4 UNK        -0.1967 
     54 N          32.4924  -50.8604  -54.4207 N.am      4 UNK        -0.4237 
     55 C          33.1367  -49.7871  -53.9462 C.2       3 UNK         0.4908 
     56 O          32.5746  -48.8530  -53.3677 O.2       3 UNK        -0.5102 
     57 CA         34.6517  -49.7327  -54.1993 C.3       3 UNK         0.0241 
     58 CB         34.9560  -48.9895  -55.5095 C.3       3 UNK        -0.1971 
     59 N          35.3438  -49.0590  -53.1028 N.am      3 UNK        -0.4139 
     60 C          35.5293  -49.5621  -51.8780 C.2       2 UNK         0.5016 
     61 O          35.2293  -50.7142  -51.5609 O.2       2 UNK        -0.5319 
     62 CA         36.1433  -48.6275  -50.8187 C.3       2 UNK         0.0286 
     63 CB         37.6727  -48.5256  -50.9826 C.3       2 UNK        -0.1963 
     64 N          35.5181  -47.2966  -50.7349 N.am      2 UNK        -0.4790 
     65 C          35.5182  -46.2977  -51.6335 C.2       1 UNK         0.5024 
     66 O          36.0647  -46.3677  -52.7355 O.2       1 UNK        -0.4888 
     67 H67        34.2902  -44.5066  -47.2911 H         1 UNK         0.0892 
     68 H68        35.9254  -45.0508  -46.9113 H         1 UNK         0.0892 
     69 H69        35.6024  -43.3339  -47.1673 H         1 UNK         0.0892 
     70 H70        33.7219  -44.9085  -49.4213 H         1 UNK         0.3107 
     71 H71        35.3820  -44.1781  -51.6359 H         1 UNK         0.0773 
     72 H72        33.4984  -45.1279  -53.0264 H         1 UNK         0.0680 
     73 H73        32.7393  -45.7237  -51.5798 H         1 UNK         0.0680 
     74 H74        34.1761  -42.5846  -53.3543 H         1 UNK         0.0650 
     75 H75        33.0248  -41.3350  -52.9623 H         1 UNK         0.0650 
     76 H76        33.6914  -44.1958  -55.1615 H         1 UNK         0.1397 
     77 H77        30.1802  -43.5949  -57.5444 H         1 UNK         0.1363 
     78 H78        30.6999  -41.3835  -53.9093 H         1 UNK         0.1355 
     79 H79        28.7279  -41.6936  -57.0529 H         1 UNK         0.0707 
     80 H80        29.0451  -40.6751  -55.6791 H         1 UNK         0.0707 
     81 H81        28.3170  -44.5140  -56.2294 H         1 UNK         0.1034 
     82 H82        26.9847  -44.7801  -55.1627 H         1 UNK         0.1034 
     83 H83        25.6453  -43.1970  -56.8511 H         1 UNK         0.0482 
     84 H84        26.0384  -41.8820  -58.6233 H         1 UNK         0.3460 
     85 H85        27.1791  -42.2517  -59.8905 H         1 UNK         0.3460 
     86 H86        26.0781  -46.0960  -57.0700 H         1 UNK         0.2989 
     87 H87        23.4297  -46.9674  -56.8213 H         1 UNK         0.0559 
     88 H88        22.5205  -46.3285  -59.6761 H         1 UNK         0.0848 
     89 H89        21.6271  -46.0113  -58.1981 H         1 UNK         0.0848 
     90 H90        21.9256  -47.6677  -58.6952 H         1 UNK         0.0848 
     91 H91        24.8172  -48.4286  -57.6744 H         1 UNK         0.3144 
     92 H92        25.8192  -49.4853  -60.6144 H         1 UNK         0.0727 
     93 H93        28.3046  -49.1679  -60.3475 H         1 UNK         0.0790 
     94 H94        28.0076  -47.6917  -59.4270 H         1 UNK         0.0790 
     95 H95        27.5337  -47.7898  -61.1132 H         1 UNK         0.0790 
     96 H96        26.9994  -49.4264  -57.8959 H         1 UNK         0.3215 
     97 H97        24.8582  -51.8781  -56.6307 H         1 UNK         0.0863 
     98 H98        26.9262  -53.2007  -56.1155 H         1 UNK         0.0808 
     99 H99        27.7618  -52.4195  -57.4577 H         1 UNK         0.0808 
    100 H100       26.3811  -53.4605  -57.7651 H         1 UNK         0.0808 
    101 H101       27.3177  -50.6649  -55.7051 H         1 UNK         0.3118 
    102 H102       25.8408  -47.6243  -54.5692 H         1 UNK         0.0546 
    103 H103       25.1509  -49.1806  -52.7381 H         1 UNK         0.0828 
    104 H104       26.6333  -48.3365  -52.3263 H         1 UNK         0.0828 
    105 H105       26.6911  -50.0204  -52.8500 H         1 UNK         0.0828 
    106 H106       28.4190  -48.7700  -54.1371 H         1 UNK         0.3005 
    107 H107       29.8040  -48.5125  -57.2488 H         1 UNK         0.1257 
    108 H108       30.2897  -46.1798  -55.3293 H         1 UNK         0.0775 
    109 H109       29.8965  -46.0698  -57.0343 H         1 UNK         0.0775 
    110 H110       33.5059  -44.9758  -57.6282 H         1 UNK         0.0840 
    111 H111       31.9233  -45.0208  -58.3653 H         1 UNK         0.0840 
    112 H112       31.1338  -48.6129  -54.7429 H         1 UNK         0.2987 
    113 H113       30.7532  -50.8140  -53.2670 H         1 UNK         0.0785 
    114 H114       29.7691  -52.8891  -54.1982 H         1 UNK         0.0798 
    115 H115       31.4001  -53.1906  -53.6278 H         1 UNK         0.0798 
    116 H116       31.0841  -53.0299  -55.3562 H         1 UNK         0.0798 
    117 H117       33.0213  -51.5557  -54.9281 H         1 UNK         0.3079 
    118 H118       35.0353  -50.7525  -54.2748 H         1 UNK         0.0794 
    119 H119       34.6527  -47.9432  -55.4558 H         1 UNK         0.0786 
    120 H120       34.4292  -49.4397  -56.3521 H         1 UNK         0.0786 
    121 H121       36.0209  -49.0157  -55.7410 H         1 UNK         0.0786 
    122 H122       35.5945  -48.0835  -53.2412 H         1 UNK         0.3032 
    123 H123       35.9553  -49.0991  -49.8523 H         1 UNK         0.1094 
    124 H124       37.9561  -48.0806  -51.9367 H         1 UNK         0.0794 
    125 H125       38.1164  -47.9249  -50.1884 H         1 UNK         0.0794 
    126 H126       38.1340  -49.5131  -50.9381 H         1 UNK         0.0794 
    127 H127       35.0086  -47.1250  -49.8790 H         1 UNK         0.3016 
@<TRIPOS>BOND
     1    1    2 1    
     2    1   67 1    
     3    1   68 1    
     4    1   69 1    
     5    2    3 2    
     6    2    4 am   BACKBONE|DICT|INTERRES
     7    4    5 1    
     8    4   70 1    
     9    5    6 1    
    10    5   65 1    
    11    5   71 1    
    12    6    7 1    
    13    6   72 1    
    14    6   73 1    
    15    7    8 1    
    16    8    9 1    
    17    8   74 1    
    18    8   75 1    
    19    9   10 ar   
    20    9   14 ar   
    21   10   11 ar   
    22   10   76 1    
    23   11   12 ar   
    24   11   48 1    
    25   12   13 ar   
    26   12   77 1    
    27   13   14 ar   
    28   13   15 1    
    29   14   78 1    
    30   15   16 1    
    31   15   79 1    
    32   15   80 1    
    33   16   17 1    
    34   17   18 1    
    35   17   81 1    
    36   17   82 1    
    37   18   19 1    
    38   18   22 1    
    39   18   83 1    
    40   19   20 am   BACKBONE|DICT|INTERRES
    41   19   21 2    
    42   20   84 1    
    43   20   85 1    
    44   22   23 am   BACKBONE|DICT|INTERRES
    45   22   86 1    
    46   23   24 2    
    47   23   25 1    
    48   25   26 1    
    49   25   27 1    
    50   25   87 1    
    51   26   88 1    
    52   26   89 1    
    53   26   90 1    
    54   27   28 am   BACKBONE|DICT|INTERRES
    55   27   91 1    
    56   28   29 2    
    57   28   30 1    
    58   30   31 1    
    59   30   32 1    
    60   30   92 1    
    61   31   93 1    
    62   31   94 1    
    63   31   95 1    
    64   32   33 am   BACKBONE|DICT|INTERRES
    65   32   96 1    
    66   33   34 2    
    67   33   35 1    
    68   35   36 1    
    69   35   37 1    
    70   35   97 1    
    71   36   98 1    
    72   36   99 1    
    73   36  100 1    
    74   37   38 am   BACKBONE|DICT|INTERRES
    75   37  101 1    
    76   38   39 2    
    77   38   40 1    
    78   40   41 1    
    79   40   42 1    
    80   40  102 1    
    81   41  103 1    
    82   41  104 1    
    83   41  105 1    
    84   42   43 am   BACKBONE|DICT|INTERRES
    85   42  106 1    
    86   43   44 2    
    87   43   45 1    
    88   45   46 1    
    89   45   49 1    
    90   45  107 1    
    91   46   47 1    
    92   46  108 1    
    93   46  109 1    
    94   47   48 1    
    95   48  110 1    
    96   48  111 1    
    97   49   50 am   BACKBONE|DICT|INTERRES
    98   49  112 1    
    99   50   51 2    
   100   50   52 1    
   101   52   53 1    
   102   52   54 1    
   103   52  113 1    
   104   53  114 1    
   105   53  115 1    
   106   53  116 1    
   107   54   55 am   BACKBONE|DICT|INTERRES
   108   54  117 1    
   109   55   56 2    
   110   55   57 1    
   111   57   58 1    
   112   57   59 1    
   113   57  118 1    
   114   58  119 1    
   115   58  120 1    
   116   58  121 1    
   117   59   60 am   BACKBONE|DICT|INTERRES
   118   59  122 1    
   119   60   61 2    
   120   60   62 1    
   121   62   63 1    
   122   62   64 1    
   123   62  123 1    
   124   63  124 1    
   125   63  125 1    
   126   63  126 1    
   127   64   65 am   BACKBONE|DICT|INTERRES
   128   64  127 1    
   129   65   66 2    
@<TRIPOS>SUBSTRUCTURE
     1 UNK         1 GROUP             0       ****    0 ROOT    
