@<TRIPOS>MOLECULE
3R134
127   129    1
SMALL
USER_CHARGES


@<TRIPOS>ATOM
      1 CA         31.8353  -49.6601  -58.0883 C.3       0 UNK        -0.1968 
      2 C          32.2663  -49.0302  -56.7739 C.2       0 UNK         0.4852 
      3 O          32.1005  -49.6456  -55.7218 O.2       0 UNK        -0.5359 
      4 N          32.8324  -47.8152  -56.8295 N.am      1 UNK        -0.4300 
      5 CA         33.2270  -46.9885  -55.6787 C.3       1 UNK         0.0863 
      6 C6         33.8814  -45.6559  -56.1146 C.3       11 UNK        -0.0953 
      7 S7         32.8126  -44.6438  -57.1877 S.3       11 UNK        -0.2369 
      8 C8         32.8755  -43.0299  -56.3495 C.3       11 UNK         0.0226 
      9 C9         31.8440  -42.9222  -55.2368 C.ar      11 UNK        -0.0699 
     10 C10        32.2061  -43.0954  -53.8957 C.ar      11 UNK        -0.0804 
     11 C11        31.2532  -42.9477  -52.8805 C.ar      11 UNK        -0.0871 
     12 C12        29.9365  -42.6145  -53.2170 C.ar      11 UNK        -0.1008 
     13 C13        29.5664  -42.4420  -54.5530 C.ar      11 UNK        -0.0735 
     14 C14        30.5219  -42.6046  -55.5577 C.ar      11 UNK        -0.0945 
     15 C15        28.1420  -42.0568  -54.9150 C.3       11 UNK         0.0169 
     16 S16        27.0852  -43.5246  -55.0715 S.3       11 UNK        -0.2669 
     17 C17        25.5583  -42.7772  -55.7436 C.3       11 UNK        -0.0850 
     18 CA         25.2858  -43.1289  -57.2311 C.3       10 UNK         0.0855 
     19 C          26.2791  -42.4268  -58.2013 C.2       10 UNK         0.5543 
     20 N          26.1090  -41.1290  -58.4192 N.am      10 UNK        -0.7343 
     21 O          27.2129  -43.0278  -58.7300 O.2       10 UNK        -0.5027 
     22 N          25.2084  -44.5824  -57.4207 N.am      10 UNK        -0.4495 
     23 C          24.6528  -45.2022  -58.4682 C.2       10 UNK         0.4903 
     24 O          24.0676  -44.6202  -59.3836 O.2       10 UNK        -0.4860 
     25 CA         24.7596  -46.7381  -58.4611 C.3       9 UNK         0.0227 
     26 CB         24.2262  -47.4032  -59.7489 C.3       9 UNK        -0.1964 
     27 N          26.1178  -47.1874  -58.1332 N.am      9 UNK        -0.4231 
     28 C          27.2331  -47.0340  -58.8684 C.2       9 UNK         0.5014 
     29 O          27.2471  -46.5494  -60.0005 O.2       9 UNK        -0.5270 
     30 CA         28.5737  -47.4823  -58.2477 C.3       8 UNK         0.0284 
     31 CB         29.4656  -46.2575  -57.9835 C.3       8 UNK        -0.1977 
     32 N          28.4252  -48.2404  -57.0018 N.am      8 UNK        -0.4342 
     33 C          27.9624  -49.4979  -56.9202 C.2       8 UNK         0.5039 
     34 O          27.7326  -50.1977  -57.9068 O.2       8 UNK        -0.5547 
     35 CA         27.6628  -50.0697  -55.5183 C.3       7 UNK         0.0281 
     36 CB         28.7643  -51.0521  -55.0986 C.3       7 UNK        -0.1963 
     37 N          27.4935  -49.0549  -54.4714 N.am      7 UNK        -0.4444 
     38 C          26.5621  -48.0890  -54.4757 C.2       7 UNK         0.5104 
     39 O          25.6802  -47.9995  -55.3307 O.2       7 UNK        -0.5100 
     40 CA         26.6662  -46.9948  -53.3960 C.3       6 UNK         0.0396 
     41 CB         25.7164  -47.3067  -52.2299 C.3       6 UNK        -0.1801 
     42 N          28.0170  -46.7629  -52.8678 N.am      6 UNK        -0.4747 
     43 C          29.1308  -46.5332  -53.5832 C.2       6 UNK         0.5012 
     44 O          29.1639  -46.5060  -54.8129 O.2       6 UNK        -0.5003 
     45 CA         30.4463  -46.3630  -52.7990 C.3       5 UNK         0.0782 
     46 C46        30.2766  -45.6161  -51.4514 C.3       11 UNK        -0.0868 
     47 S47        31.8660  -44.8757  -50.9472 S.3       11 UNK        -0.2515 
     48 C48        31.6419  -43.1263  -51.4165 C.3       11 UNK         0.0199 
     49 N          31.2195  -47.6073  -52.6446 N.am      5 UNK        -0.4607 
     50 C          30.7823  -48.8500  -52.3959 C.2       4 UNK         0.5031 
     51 O          29.5979  -49.1917  -52.3395 O.2       4 UNK        -0.5119 
     52 CA         31.8561  -49.9106  -52.1410 C.3       4 UNK         0.0263 
     53 CB         31.9960  -50.1923  -50.6348 C.3       4 UNK        -0.1967 
     54 N          31.4330  -51.1144  -52.8478 N.am      4 UNK        -0.4237 
     55 C          32.1716  -52.0788  -53.4104 C.2       3 UNK         0.4908 
     56 O          31.6443  -52.9713  -54.0735 O.2       3 UNK        -0.5102 
     57 CA         33.7008  -52.0879  -53.2264 C.3       3 UNK         0.0241 
     58 CB         34.3414  -53.4248  -53.6620 C.3       3 UNK        -0.1971 
     59 N          34.3276  -50.9800  -53.9501 N.am      3 UNK        -0.4139 
     60 C          35.5111  -50.4486  -53.6092 C.2       2 UNK         0.5016 
     61 O          36.1826  -50.8436  -52.6544 O.2       2 UNK        -0.5319 
     62 CA         36.0680  -49.2936  -54.4604 C.3       2 UNK         0.0286 
     63 CB         37.1337  -49.8166  -55.4375 C.3       2 UNK        -0.1963 
     64 N          35.0577  -48.5545  -55.2165 N.am      2 UNK        -0.4790 
     65 C          34.1683  -47.7031  -54.6876 C.2       1 UNK         0.5024 
     66 O          34.0678  -47.4691  -53.4824 O.2       1 UNK        -0.4888 
     67 H67        31.8532  -48.9421  -58.9090 H         1 UNK         0.0892 
     68 H68        30.8202  -50.0477  -58.0023 H         1 UNK         0.0892 
     69 H69        32.4962  -50.4894  -58.3406 H         1 UNK         0.0892 
     70 H70        32.9475  -47.3681  -57.7277 H         1 UNK         0.3107 
     71 H71        32.3074  -46.7557  -55.1417 H         1 UNK         0.0773 
     72 H72        34.1568  -45.0699  -55.2358 H         1 UNK         0.0680 
     73 H73        34.8116  -45.8426  -56.6547 H         1 UNK         0.0680 
     74 H74        33.8809  -42.8409  -55.9703 H         1 UNK         0.0650 
     75 H75        32.6859  -42.2508  -57.0894 H         1 UNK         0.0650 
     76 H76        33.2281  -43.3391  -53.6389 H         1 UNK         0.1397 
     77 H77        29.1947  -42.4883  -52.4402 H         1 UNK         0.1363 
     78 H78        30.2387  -42.4726  -56.5933 H         1 UNK         0.1355 
     79 H79        28.1337  -41.4998  -55.8534 H         1 UNK         0.0707 
     80 H80        27.7286  -41.3912  -54.1557 H         1 UNK         0.0707 
     81 H81        25.5742  -41.6953  -55.5993 H         1 UNK         0.1034 
     82 H82        24.7253  -43.1313  -55.1343 H         1 UNK         0.1034 
     83 H83        24.2956  -42.7356  -57.4719 H         1 UNK         0.0482 
     84 H84        26.7474  -40.6508  -59.0360 H         1 UNK         0.3460 
     85 H85        25.3484  -40.6201  -57.9950 H         1 UNK         0.3460 
     86 H86        25.7070  -45.1333  -56.7378 H         1 UNK         0.2989 
     87 H87        24.1284  -47.0795  -57.6391 H         1 UNK         0.0559 
     88 H88        24.7550  -47.0587  -60.6379 H         1 UNK         0.0848 
     89 H89        23.1701  -47.1733  -59.8946 H         1 UNK         0.0848 
     90 H90        24.3179  -48.4884  -59.7024 H         1 UNK         0.0848 
     91 H91        26.2121  -47.5941  -57.2070 H         1 UNK         0.3144 
     92 H92        29.0762  -48.1216  -58.9764 H         1 UNK         0.0727 
     93 H93        30.4060  -46.5401  -57.5132 H         1 UNK         0.0790 
     94 H94        28.9736  -45.5333  -57.3319 H         1 UNK         0.0790 
     95 H95        29.7082  -45.7406  -58.9128 H         1 UNK         0.0790 
     96 H96        28.6179  -47.7262  -56.1431 H         1 UNK         0.3215 
     97 H97        26.7227  -50.6206  -55.5913 H         1 UNK         0.0863 
     98 H98        28.5403  -51.5181  -54.1388 H         1 UNK         0.0808 
     99 H99        29.7290  -50.5513  -55.0201 H         1 UNK         0.0808 
    100 H100       28.8755  -51.8538  -55.8305 H         1 UNK         0.0808 
    101 H101       28.1871  -49.0412  -53.7274 H         1 UNK         0.3118 
    102 H102       26.3373  -46.0628  -53.8565 H         1 UNK         0.0546 
    103 H103       24.6970  -47.4612  -52.5868 H         1 UNK         0.0828 
    104 H104       25.6838  -46.4865  -51.5124 H         1 UNK         0.0828 
    105 H105       26.0159  -48.2103  -51.6972 H         1 UNK         0.0828 
    106 H106       28.1144  -46.8371  -51.8657 H         1 UNK         0.3005 
    107 H107       31.0472  -45.7243  -53.4477 H         1 UNK         0.1257 
    108 H108       29.9421  -46.2977  -50.6676 H         1 UNK         0.0775 
    109 H109       29.5236  -44.8288  -51.5116 H         1 UNK         0.0775 
    110 H110       30.8920  -42.6784  -50.7624 H         1 UNK         0.0840 
    111 H111       32.5704  -42.5881  -51.2208 H         1 UNK         0.0840 
    112 H112       32.2248  -47.4761  -52.6981 H         1 UNK         0.2987 
    113 H113       32.8025  -49.5416  -52.5270 H         1 UNK         0.0785 
    114 H114       31.0605  -50.5538  -50.2058 H         1 UNK         0.0798 
    115 H115       32.2720  -49.2851  -50.0955 H         1 UNK         0.0798 
    116 H116       32.7651  -50.9349  -50.4272 H         1 UNK         0.0798 
    117 H117       30.4336  -51.1334  -53.0008 H         1 UNK         0.3079 
    118 H118       33.8867  -51.9696  -52.1581 H         1 UNK         0.0794 
    119 H119       34.2392  -53.5880  -54.7355 H         1 UNK         0.0786 
    120 H120       33.8710  -54.2683  -53.1549 H         1 UNK         0.0786 
    121 H121       35.4034  -53.4579  -53.4190 H         1 UNK         0.0786 
    122 H122       33.7843  -50.5700  -54.7042 H         1 UNK         0.3032 
    123 H123       36.5504  -48.5957  -53.7718 H         1 UNK         0.1094 
    124 H124       37.6049  -49.0010  -55.9865 H         1 UNK         0.0794 
    125 H125       37.9261  -50.3449  -54.9051 H         1 UNK         0.0794 
    126 H126       36.7103  -50.5120  -56.1634 H         1 UNK         0.0794 
    127 H127       35.0485  -48.6897  -56.2175 H         1 UNK         0.3016 
@<TRIPOS>BOND
     1    1    2 1    
     2    1   67 1    
     3    1   68 1    
     4    1   69 1    
     5    2    3 2    
     6    2    4 am   BACKBONE|DICT|INTERRES
     7    4    5 1    
     8    4   70 1    
     9    5    6 1    
    10    5   65 1    
    11    5   71 1    
    12    6    7 1    
    13    6   72 1    
    14    6   73 1    
    15    7    8 1    
    16    8    9 1    
    17    8   74 1    
    18    8   75 1    
    19    9   10 ar   
    20    9   14 ar   
    21   10   11 ar   
    22   10   76 1    
    23   11   12 ar   
    24   11   48 1    
    25   12   13 ar   
    26   12   77 1    
    27   13   14 ar   
    28   13   15 1    
    29   14   78 1    
    30   15   16 1    
    31   15   79 1    
    32   15   80 1    
    33   16   17 1    
    34   17   18 1    
    35   17   81 1    
    36   17   82 1    
    37   18   19 1    
    38   18   22 1    
    39   18   83 1    
    40   19   20 am   BACKBONE|DICT|INTERRES
    41   19   21 2    
    42   20   84 1    
    43   20   85 1    
    44   22   23 am   BACKBONE|DICT|INTERRES
    45   22   86 1    
    46   23   24 2    
    47   23   25 1    
    48   25   26 1    
    49   25   27 1    
    50   25   87 1    
    51   26   88 1    
    52   26   89 1    
    53   26   90 1    
    54   27   28 am   BACKBONE|DICT|INTERRES
    55   27   91 1    
    56   28   29 2    
    57   28   30 1    
    58   30   31 1    
    59   30   32 1    
    60   30   92 1    
    61   31   93 1    
    62   31   94 1    
    63   31   95 1    
    64   32   33 am   BACKBONE|DICT|INTERRES
    65   32   96 1    
    66   33   34 2    
    67   33   35 1    
    68   35   36 1    
    69   35   37 1    
    70   35   97 1    
    71   36   98 1    
    72   36   99 1    
    73   36  100 1    
    74   37   38 am   BACKBONE|DICT|INTERRES
    75   37  101 1    
    76   38   39 2    
    77   38   40 1    
    78   40   41 1    
    79   40   42 1    
    80   40  102 1    
    81   41  103 1    
    82   41  104 1    
    83   41  105 1    
    84   42   43 am   BACKBONE|DICT|INTERRES
    85   42  106 1    
    86   43   44 2    
    87   43   45 1    
    88   45   46 1    
    89   45   49 1    
    90   45  107 1    
    91   46   47 1    
    92   46  108 1    
    93   46  109 1    
    94   47   48 1    
    95   48  110 1    
    96   48  111 1    
    97   49   50 am   BACKBONE|DICT|INTERRES
    98   49  112 1    
    99   50   51 2    
   100   50   52 1    
   101   52   53 1    
   102   52   54 1    
   103   52  113 1    
   104   53  114 1    
   105   53  115 1    
   106   53  116 1    
   107   54   55 am   BACKBONE|DICT|INTERRES
   108   54  117 1    
   109   55   56 2    
   110   55   57 1    
   111   57   58 1    
   112   57   59 1    
   113   57  118 1    
   114   58  119 1    
   115   58  120 1    
   116   58  121 1    
   117   59   60 am   BACKBONE|DICT|INTERRES
   118   59  122 1    
   119   60   61 2    
   120   60   62 1    
   121   62   63 1    
   122   62   64 1    
   123   62  123 1    
   124   63  124 1    
   125   63  125 1    
   126   63  126 1    
   127   64   65 am   BACKBONE|DICT|INTERRES
   128   64  127 1    
   129   65   66 2    
@<TRIPOS>SUBSTRUCTURE
     1 UNK         1 GROUP             0       ****    0 ROOT    
