@<TRIPOS>MOLECULE
3R134
127   129    1
SMALL
USER_CHARGES


@<TRIPOS>ATOM
      1 CA         38.6980  -45.8659  -53.2223 C.3       0 UNK        -0.1968 
      2 C          37.7650  -45.4443  -54.3478 C.2       0 UNK         0.4852 
      3 O          38.0848  -45.6554  -55.5185 O.2       0 UNK        -0.5359 
      4 N          36.6165  -44.8480  -54.0013 N.am      1 UNK        -0.4300 
      5 CA         35.5742  -44.3984  -54.9329 C.3       1 UNK         0.0863 
      6 C6         34.5608  -43.4150  -54.2718 C.3       11 UNK        -0.0953 
      7 S7         34.1565  -43.7185  -52.5094 S.3       11 UNK        -0.2369 
      8 C8         32.9344  -45.0674  -52.5445 C.3       11 UNK         0.0226 
      9 C9         31.5158  -44.6066  -52.8406 C.ar      11 UNK        -0.0699 
     10 C10        30.6060  -44.4681  -51.7912 C.ar      11 UNK        -0.0804 
     11 C11        29.2657  -44.1720  -52.0471 C.ar      11 UNK        -0.0871 
     12 C12        28.8446  -43.9560  -53.3625 C.ar      11 UNK        -0.1008 
     13 C13        29.7484  -44.0780  -54.4233 C.ar      11 UNK        -0.0735 
     14 C14        31.0805  -44.4138  -54.1558 C.ar      11 UNK        -0.0945 
     15 C15        29.2740  -43.9314  -55.8624 C.3       11 UNK         0.0169 
     16 S16        28.4487  -42.3387  -56.1809 S.3       11 UNK        -0.2669 
     17 C17        28.3008  -42.3800  -58.0016 C.3       11 UNK        -0.0850 
     18 CA         26.9186  -42.8654  -58.5167 C.3       10 UNK         0.0855 
     19 C          26.8547  -42.7281  -60.0679 C.2       10 UNK         0.5543 
     20 N          26.9027  -43.8105  -60.8375 N.am      10 UNK        -0.7343 
     21 O          26.7629  -41.6147  -60.5787 O.2       10 UNK        -0.5027 
     22 N          26.5952  -44.2104  -58.0180 N.am      10 UNK        -0.4495 
     23 C          25.4093  -44.8227  -58.1289 C.2       10 UNK         0.4903 
     24 O          24.3881  -44.2625  -58.5299 O.2       10 UNK        -0.4860 
     25 CA         25.3593  -46.3148  -57.7321 C.3       9 UNK         0.0227 
     26 CB         24.3527  -47.1159  -58.5836 C.3       9 UNK        -0.1964 
     27 N          26.6700  -46.9844  -57.7230 N.am      9 UNK        -0.4231 
     28 C          27.5244  -47.1243  -58.7507 C.2       9 UNK         0.5014 
     29 O          27.3198  -46.6690  -59.8772 O.2       9 UNK        -0.5270 
     30 CA         28.8488  -47.8519  -58.4732 C.3       8 UNK         0.0284 
     31 CB         29.9207  -46.8702  -57.9772 C.3       8 UNK        -0.1977 
     32 N          28.7006  -48.9433  -57.5082 N.am      8 UNK        -0.4342 
     33 C          28.4162  -50.2079  -57.8475 C.2       8 UNK         0.5039 
     34 O          28.3076  -50.6047  -59.0085 O.2       8 UNK        -0.5547 
     35 CA         28.1982  -51.1966  -56.6914 C.3       7 UNK         0.0281 
     36 CB         29.5412  -51.7087  -56.1421 C.3       7 UNK        -0.1963 
     37 N          27.4007  -50.6068  -55.6133 N.am      7 UNK        -0.4444 
     38 C          26.0871  -50.3492  -55.7105 C.2       7 UNK         0.5104 
     39 O          25.4091  -50.6266  -56.6999 O.2       7 UNK        -0.5100 
     40 CA         25.3982  -49.6770  -54.5089 C.3       6 UNK         0.0396 
     41 CB         24.5737  -50.7078  -53.7213 C.3       6 UNK        -0.1801 
     42 N          26.3153  -48.9992  -53.5896 N.am      6 UNK        -0.4747 
     43 C          26.9876  -47.8726  -53.8645 C.2       6 UNK         0.5012 
     44 O          26.9605  -47.3034  -54.9551 O.2       6 UNK        -0.5003 
     45 CA         27.8878  -47.3317  -52.7390 C.3       5 UNK         0.0782 
     46 C46        27.0231  -46.5904  -51.6841 C.3       11 UNK        -0.0868 
     47 S47        27.9746  -45.8680  -50.3053 S.3       11 UNK        -0.2515 
     48 C48        28.2682  -44.1691  -50.9013 C.3       11 UNK         0.0199 
     49 N          28.7453  -48.3800  -52.1682 N.am      5 UNK        -0.4607 
     50 C          29.6318  -49.0911  -52.8783 C.2       4 UNK         0.5031 
     51 O          29.7945  -48.9659  -54.0967 O.2       4 UNK        -0.5119 
     52 CA         30.4404  -50.1502  -52.1228 C.3       4 UNK         0.0263 
     53 CB         29.5821  -51.4033  -51.8608 C.3       4 UNK        -0.1967 
     54 N          31.5924  -50.4851  -52.9527 N.am      4 UNK        -0.4237 
     55 C          32.6931  -51.1500  -52.5847 C.2       3 UNK         0.4908 
     56 O          32.8732  -51.6133  -51.4580 O.2       3 UNK        -0.5102 
     57 CA         33.7842  -51.3265  -53.6594 C.3       3 UNK         0.0241 
     58 CB         33.5852  -52.6547  -54.4085 C.3       3 UNK        -0.1971 
     59 N          33.8207  -50.2243  -54.6284 N.am      3 UNK        -0.4139 
     60 C          34.2389  -48.9845  -54.3407 C.2       2 UNK         0.5016 
     61 O          34.7272  -48.6567  -53.2543 O.2       2 UNK        -0.5319 
     62 CA         34.0377  -47.9240  -55.4319 C.3       2 UNK         0.0286 
     63 CB         32.5278  -47.6330  -55.5944 C.3       2 UNK        -0.1963 
     64 N          34.7638  -46.7239  -55.0180 N.am      2 UNK        -0.4790 
     65 C          34.8581  -45.5558  -55.6646 C.2       1 UNK         0.5024 
     66 O          34.4027  -45.3599  -56.7919 O.2       1 UNK        -0.4888 
     67 H67        39.6688  -45.3849  -53.3394 H         1 UNK         0.0892 
     68 H68        38.3030  -45.5974  -52.2425 H         1 UNK         0.0892 
     69 H69        38.8469  -46.9452  -53.2434 H         1 UNK         0.0892 
     70 H70        36.4077  -44.6898  -53.0248 H         1 UNK         0.3107 
     71 H71        36.0851  -43.8394  -55.7203 H         1 UNK         0.0773 
     72 H72        35.0014  -42.4173  -54.2981 H         1 UNK         0.0680 
     73 H73        33.6444  -43.3178  -54.8541 H         1 UNK         0.0680 
     74 H74        32.9624  -45.5617  -51.5722 H         1 UNK         0.0650 
     75 H75        33.2223  -45.8329  -53.2542 H         1 UNK         0.0650 
     76 H76        30.9257  -44.6503  -50.7740 H         1 UNK         0.1397 
     77 H77        27.8058  -43.7364  -53.5688 H         1 UNK         0.1363 
     78 H78        31.7711  -44.5590  -54.9742 H         1 UNK         0.1355 
     79 H79        30.1139  -44.0418  -56.5501 H         1 UNK         0.0707 
     80 H80        28.5780  -44.7424  -56.0765 H         1 UNK         0.0707 
     81 H81        28.4917  -41.3645  -58.3550 H         1 UNK         0.1034 
     82 H82        29.1026  -42.9895  -58.4227 H         1 UNK         0.1034 
     83 H83        26.1598  -42.1896  -58.1177 H         1 UNK         0.0482 
     84 H84        26.9855  -44.7373  -60.4333 H         1 UNK         0.3460 
     85 H85        26.8590  -43.7043  -61.8383 H         1 UNK         0.3460 
     86 H86        27.3702  -44.7524  -57.6734 H         1 UNK         0.2989 
     87 H87        25.0058  -46.3364  -56.7004 H         1 UNK         0.0559 
     88 H88        23.3436  -46.7148  -58.4822 H         1 UNK         0.0848 
     89 H89        24.3165  -48.1606  -58.2739 H         1 UNK         0.0848 
     90 H90        24.6085  -47.0886  -59.6433 H         1 UNK         0.0848 
     91 H91        26.9490  -47.3216  -56.8038 H         1 UNK         0.3144 
     92 H92        29.1941  -48.2528  -59.4290 H         1 UNK         0.0727 
     93 H93        29.7761  -46.6032  -56.9307 H         1 UNK         0.0790 
     94 H94        29.9240  -45.9495  -58.5629 H         1 UNK         0.0790 
     95 H95        30.9119  -47.3111  -58.0759 H         1 UNK         0.0790 
     96 H96        28.7837  -48.7149  -56.5259 H         1 UNK         0.3215 
     97 H97        27.6494  -52.0548  -57.0863 H         1 UNK         0.0863 
     98 H98        29.3958  -52.4110  -55.3214 H         1 UNK         0.0808 
     99 H99        30.1745  -50.8978  -55.7847 H         1 UNK         0.0808 
    100 H100       30.0997  -52.2323  -56.9191 H         1 UNK         0.0808 
    101 H101       27.8912  -50.3162  -54.7794 H         1 UNK         0.3118 
    102 H102       24.7120  -48.9277  -54.9098 H         1 UNK         0.0546 
    103 H103       25.2058  -51.4795  -53.2801 H         1 UNK         0.0828 
    104 H104       23.8530  -51.2092  -54.3690 H         1 UNK         0.0828 
    105 H105       24.0079  -50.2353  -52.9183 H         1 UNK         0.0828 
    106 H106       26.4249  -49.4100  -52.6732 H         1 UNK         0.3005 
    107 H107       28.5602  -46.6128  -53.2074 H         1 UNK         0.1257 
    108 H108       26.2922  -47.2724  -51.2454 H         1 UNK         0.0775 
    109 H109       26.4411  -45.7973  -52.1580 H         1 UNK         0.0775 
    110 H110       27.3243  -43.7086  -51.1972 H         1 UNK         0.0840 
    111 H111       28.6604  -43.5660  -50.0811 H         1 UNK         0.0840 
    112 H112       28.6698  -48.5261  -51.1718 H         1 UNK         0.2987 
    113 H113       30.7895  -49.7251  -51.1796 H         1 UNK         0.0785 
    114 H114       28.7051  -51.1628  -51.2589 H         1 UNK         0.0798 
    115 H115       30.1420  -52.1644  -51.3175 H         1 UNK         0.0798 
    116 H116       29.2289  -51.8511  -52.7904 H         1 UNK         0.0798 
    117 H117       31.5284  -50.1007  -53.8871 H         1 UNK         0.3079 
    118 H118       34.7484  -51.3635  -53.1472 H         1 UNK         0.0794 
    119 H119       34.3891  -52.8320  -55.1233 H         1 UNK         0.0786 
    120 H120       32.6396  -52.6762  -54.9522 H         1 UNK         0.0786 
    121 H121       33.5803  -53.4963  -53.7143 H         1 UNK         0.0786 
    122 H122       33.4537  -50.4169  -55.5494 H         1 UNK         0.3032 
    123 H123       34.4605  -48.2842  -56.3720 H         1 UNK         0.1094 
    124 H124       32.0597  -47.3645  -54.6467 H         1 UNK         0.0794 
    125 H125       32.3401  -46.8200  -56.2926 H         1 UNK         0.0794 
    126 H126       31.9952  -48.5038  -55.9780 H         1 UNK         0.0794 
    127 H127       35.1930  -46.8204  -54.1044 H         1 UNK         0.3016 
@<TRIPOS>BOND
     1    1    2 1    
     2    1   67 1    
     3    1   68 1    
     4    1   69 1    
     5    2    3 2    
     6    2    4 am   BACKBONE|DICT|INTERRES
     7    4    5 1    
     8    4   70 1    
     9    5    6 1    
    10    5   65 1    
    11    5   71 1    
    12    6    7 1    
    13    6   72 1    
    14    6   73 1    
    15    7    8 1    
    16    8    9 1    
    17    8   74 1    
    18    8   75 1    
    19    9   10 ar   
    20    9   14 ar   
    21   10   11 ar   
    22   10   76 1    
    23   11   12 ar   
    24   11   48 1    
    25   12   13 ar   
    26   12   77 1    
    27   13   14 ar   
    28   13   15 1    
    29   14   78 1    
    30   15   16 1    
    31   15   79 1    
    32   15   80 1    
    33   16   17 1    
    34   17   18 1    
    35   17   81 1    
    36   17   82 1    
    37   18   19 1    
    38   18   22 1    
    39   18   83 1    
    40   19   20 am   BACKBONE|DICT|INTERRES
    41   19   21 2    
    42   20   84 1    
    43   20   85 1    
    44   22   23 am   BACKBONE|DICT|INTERRES
    45   22   86 1    
    46   23   24 2    
    47   23   25 1    
    48   25   26 1    
    49   25   27 1    
    50   25   87 1    
    51   26   88 1    
    52   26   89 1    
    53   26   90 1    
    54   27   28 am   BACKBONE|DICT|INTERRES
    55   27   91 1    
    56   28   29 2    
    57   28   30 1    
    58   30   31 1    
    59   30   32 1    
    60   30   92 1    
    61   31   93 1    
    62   31   94 1    
    63   31   95 1    
    64   32   33 am   BACKBONE|DICT|INTERRES
    65   32   96 1    
    66   33   34 2    
    67   33   35 1    
    68   35   36 1    
    69   35   37 1    
    70   35   97 1    
    71   36   98 1    
    72   36   99 1    
    73   36  100 1    
    74   37   38 am   BACKBONE|DICT|INTERRES
    75   37  101 1    
    76   38   39 2    
    77   38   40 1    
    78   40   41 1    
    79   40   42 1    
    80   40  102 1    
    81   41  103 1    
    82   41  104 1    
    83   41  105 1    
    84   42   43 am   BACKBONE|DICT|INTERRES
    85   42  106 1    
    86   43   44 2    
    87   43   45 1    
    88   45   46 1    
    89   45   49 1    
    90   45  107 1    
    91   46   47 1    
    92   46  108 1    
    93   46  109 1    
    94   47   48 1    
    95   48  110 1    
    96   48  111 1    
    97   49   50 am   BACKBONE|DICT|INTERRES
    98   49  112 1    
    99   50   51 2    
   100   50   52 1    
   101   52   53 1    
   102   52   54 1    
   103   52  113 1    
   104   53  114 1    
   105   53  115 1    
   106   53  116 1    
   107   54   55 am   BACKBONE|DICT|INTERRES
   108   54  117 1    
   109   55   56 2    
   110   55   57 1    
   111   57   58 1    
   112   57   59 1    
   113   57  118 1    
   114   58  119 1    
   115   58  120 1    
   116   58  121 1    
   117   59   60 am   BACKBONE|DICT|INTERRES
   118   59  122 1    
   119   60   61 2    
   120   60   62 1    
   121   62   63 1    
   122   62   64 1    
   123   62  123 1    
   124   63  124 1    
   125   63  125 1    
   126   63  126 1    
   127   64   65 am   BACKBONE|DICT|INTERRES
   128   64  127 1    
   129   65   66 2    
@<TRIPOS>SUBSTRUCTURE
     1 UNK         1 GROUP             0       ****    0 ROOT    
