@<TRIPOS>MOLECULE
3R134
127   129    1
SMALL
USER_CHARGES


@<TRIPOS>ATOM
      1 CA         31.8226  -45.7053  -50.6230 C.3       0 UNK        -0.1968 
      2 C          33.2490  -45.6433  -51.1476 C.2       0 UNK         0.4852 
      3 O          34.1277  -45.1129  -50.4667 O.2       0 UNK        -0.5359 
      4 N          33.4795  -46.1711  -52.3561 N.am      1 UNK        -0.4300 
      5 CA         34.7916  -46.2211  -53.0119 C.3       1 UNK         0.0863 
      6 C6         34.7241  -46.3379  -54.5660 C.3       11 UNK        -0.0953 
      7 S7         33.2559  -45.6127  -55.3664 S.3       11 UNK        -0.2369 
      8 C8         33.3663  -43.8564  -54.9217 C.3       11 UNK         0.0226 
      9 C9         32.0030  -43.2121  -55.1005 C.ar      11 UNK        -0.0699 
     10 C10        31.1095  -43.1545  -54.0275 C.ar      11 UNK        -0.0804 
     11 C11        29.8193  -42.6458  -54.2047 C.ar      11 UNK        -0.0871 
     12 C12        29.4474  -42.1408  -55.4563 C.ar      11 UNK        -0.1008 
     13 C13        30.3386  -42.1804  -56.5341 C.ar      11 UNK        -0.0735 
     14 C14        31.6138  -42.7224  -56.3497 C.ar      11 UNK        -0.0945 
     15 C15        29.9392  -41.6318  -57.8978 C.3       11 UNK         0.0169 
     16 S16        29.0180  -42.8523  -58.8921 S.3       11 UNK        -0.2669 
     17 C17        27.3011  -42.5777  -58.3304 C.3       11 UNK        -0.0850 
     18 CA         26.7827  -43.7194  -57.4107 C.3       10 UNK         0.0855 
     19 C          25.4876  -43.3343  -56.6323 C.2       10 UNK         0.5543 
     20 N          24.5270  -44.2312  -56.4377 N.am      10 UNK        -0.7343 
     21 O          25.3662  -42.2082  -56.1571 O.2       10 UNK        -0.5027 
     22 N          26.7350  -45.0374  -58.0625 N.am      10 UNK        -0.4495 
     23 C          25.9805  -45.3859  -59.1139 C.2       10 UNK         0.4903 
     24 O          25.2948  -44.5999  -59.7678 O.2       10 UNK        -0.4860 
     25 CA         25.9461  -46.8823  -59.4739 C.3       9 UNK         0.0227 
     26 CB         26.9884  -47.1920  -60.5589 C.3       9 UNK        -0.1964 
     27 N          26.1454  -47.7583  -58.3107 N.am      9 UNK        -0.4231 
     28 C          25.2788  -47.8551  -57.2871 C.2       9 UNK         0.5014 
     29 O          24.2085  -47.2441  -57.2606 O.2       9 UNK        -0.5270 
     30 CA         25.6671  -48.7035  -56.0582 C.3       8 UNK         0.0284 
     31 CB         24.4883  -49.5431  -55.5215 C.3       8 UNK        -0.1977 
     32 N          26.8763  -49.5145  -56.2300 N.am      8 UNK        -0.4342 
     33 C          27.0583  -50.6008  -56.9944 C.2       8 UNK         0.5039 
     34 O          26.1703  -51.1425  -57.6542 O.2       8 UNK        -0.5547 
     35 CA         28.5024  -51.1462  -57.0359 C.3       7 UNK         0.0281 
     36 CB         28.7713  -52.0453  -58.2614 C.3       7 UNK        -0.1963 
     37 N          29.5150  -50.0832  -56.9326 N.am      7 UNK        -0.4444 
     38 C          29.6610  -49.0400  -57.7643 C.2       7 UNK         0.5104 
     39 O          28.9686  -48.8701  -58.7673 O.2       7 UNK        -0.5100 
     40 CA         30.6951  -47.9759  -57.3549 C.3       6 UNK         0.0396 
     41 CB         30.8182  -46.8334  -58.3864 C.3       6 UNK        -0.1801 
     42 N          30.4235  -47.4244  -56.0229 N.am      6 UNK        -0.4747 
     43 C          29.3110  -46.8039  -55.6012 C.2       6 UNK         0.5012 
     44 O          28.2966  -46.6669  -56.2859 O.2       6 UNK        -0.5003 
     45 CA         29.3235  -46.3119  -54.1404 C.3       5 UNK         0.0782 
     46 C46        28.1720  -45.3224  -53.8231 C.3       11 UNK        -0.0868 
     47 S47        28.5508  -44.3253  -52.3437 S.3       11 UNK        -0.2515 
     48 C48        28.8178  -42.6589  -53.0529 C.3       11 UNK         0.0199 
     49 N          29.2954  -47.4704  -53.2434 N.am      5 UNK        -0.4607 
     50 C          30.3561  -48.2229  -52.9337 C.2       4 UNK         0.5031 
     51 O          31.5071  -47.9245  -53.2655 O.2       4 UNK        -0.5119 
     52 CA         30.0962  -49.5141  -52.1299 C.3       4 UNK         0.0263 
     53 CB         28.6959  -50.1213  -52.3812 C.3       4 UNK        -0.1967 
     54 N          31.1398  -50.5198  -52.3638 N.am      4 UNK        -0.4237 
     55 C          31.4884  -51.0635  -53.5395 C.2       3 UNK         0.4908 
     56 O          30.9121  -50.8324  -54.6051 O.2       3 UNK        -0.5102 
     57 CA         32.7315  -51.9713  -53.5163 C.3       3 UNK         0.0241 
     58 CB         32.9592  -52.6928  -54.8584 C.3       3 UNK        -0.1971 
     59 N          33.9239  -51.1864  -53.1887 N.am      3 UNK        -0.4139 
     60 C          34.2960  -50.8188  -51.9546 C.2       2 UNK         0.5016 
     61 O          33.6993  -51.1526  -50.9302 O.2       2 UNK        -0.5319 
     62 CA         35.4640  -49.8334  -51.8685 C.3       2 UNK         0.0286 
     63 CB         36.7066  -50.3375  -52.6352 C.3       2 UNK        -0.1963 
     64 N          34.9723  -48.5613  -52.3899 N.am      2 UNK        -0.4790 
     65 C          35.6119  -47.3856  -52.4270 C.2       1 UNK         0.5024 
     66 O          36.7610  -47.1998  -52.0254 O.2       1 UNK        -0.4888 
     67 H67        31.1010  -45.7611  -51.4363 H         1 UNK         0.0892 
     68 H68        31.5928  -44.8148  -50.0386 H         1 UNK         0.0892 
     69 H69        31.6929  -46.5780  -49.9838 H         1 UNK         0.0892 
     70 H70        32.7255  -46.6523  -52.8436 H         1 UNK         0.3107 
     71 H71        35.3194  -45.2943  -52.7761 H         1 UNK         0.0773 
     72 H72        34.7330  -47.3813  -54.8880 H         1 UNK         0.0680 
     73 H73        35.6157  -45.8908  -55.0088 H         1 UNK         0.0680 
     74 H74        33.6993  -43.7434  -53.8896 H         1 UNK         0.0650 
     75 H75        34.1119  -43.3656  -55.5487 H         1 UNK         0.0650 
     76 H76        31.4029  -43.5461  -53.0632 H         1 UNK         0.1397 
     77 H77        28.4573  -41.7298  -55.5985 H         1 UNK         0.1363 
     78 H78        32.3015  -42.7764  -57.1827 H         1 UNK         0.1355 
     79 H79        30.8335  -41.3467  -58.4541 H         1 UNK         0.0707 
     80 H80        29.3610  -40.7140  -57.7833 H         1 UNK         0.0707 
     81 H81        26.6614  -42.4665  -59.2063 H         1 UNK         0.1034 
     82 H82        27.2511  -41.6158  -57.8186 H         1 UNK         0.1034 
     83 H83        27.5290  -43.8410  -56.6304 H         1 UNK         0.0482 
     84 H84        24.5950  -45.1654  -56.8208 H         1 UNK         0.3460 
     85 H85        23.7058  -43.9630  -55.9195 H         1 UNK         0.3460 
     86 H86        27.2583  -45.7636  -57.5792 H         1 UNK         0.2989 
     87 H87        24.9585  -47.1022  -59.8845 H         1 UNK         0.0559 
     88 H88        26.9931  -48.2504  -60.8198 H         1 UNK         0.0848 
     89 H89        27.9950  -46.9189  -60.2402 H         1 UNK         0.0848 
     90 H90        26.7767  -46.6325  -61.4709 H         1 UNK         0.0848 
     91 H91        27.0298  -48.2542  -58.2624 H         1 UNK         0.3144 
     92 H92        25.9199  -47.9784  -55.2831 H         1 UNK         0.0727 
     93 H93        24.7774  -50.1186  -54.6422 H         1 UNK         0.0790 
     94 H94        24.1105  -50.2391  -56.2708 H         1 UNK         0.0790 
     95 H95        23.6547  -48.9038  -55.2281 H         1 UNK         0.0790 
     96 H96        27.7030  -49.1354  -55.7909 H         1 UNK         0.3215 
     97 H97        28.6181  -51.7631  -56.1432 H         1 UNK         0.0863 
     98 H98        29.7934  -52.4239  -58.2581 H         1 UNK         0.0808 
     99 H99        28.6132  -51.5112  -59.1989 H         1 UNK         0.0808 
    100 H100       28.1066  -52.9099  -58.2650 H         1 UNK         0.0808 
    101 H101       30.1261  -50.1562  -56.1182 H         1 UNK         0.3118 
    102 H102       31.6607  -48.4799  -57.2961 H         1 UNK         0.0546 
    103 H103       29.8830  -46.2836  -58.5005 H         1 UNK         0.0828 
    104 H104       31.0885  -47.2215  -59.3689 H         1 UNK         0.0828 
    105 H105       31.5884  -46.1191  -58.0956 H         1 UNK         0.0828 
    106 H106       31.1694  -47.5404  -55.3447 H         1 UNK         0.3005 
    107 H107       30.2693  -45.7816  -54.0140 H         1 UNK         0.1257 
    108 H108       27.9958  -44.6407  -54.6520 H         1 UNK         0.0775 
    109 H109       27.2290  -45.8501  -53.6714 H         1 UNK         0.0775 
    110 H110       27.8534  -42.2637  -53.3767 H         1 UNK         0.0840 
    111 H111       29.1728  -41.9925  -52.2657 H         1 UNK         0.0840 
    112 H112       28.3840  -47.7626  -52.9236 H         1 UNK         0.2987 
    113 H113       30.1643  -49.2398  -51.0763 H         1 UNK         0.0785 
    114 H114       28.5828  -51.0721  -51.8601 H         1 UNK         0.0798 
    115 H115       28.5132  -50.3045  -53.4408 H         1 UNK         0.0798 
    116 H116       27.9028  -49.4688  -52.0149 H         1 UNK         0.0798 
    117 H117       31.7361  -50.7318  -51.5704 H         1 UNK         0.3079 
    118 H118       32.5743  -52.7319  -52.7482 H         1 UNK         0.0794 
    119 H119       32.0907  -53.2947  -55.1294 H         1 UNK         0.0786 
    120 H120       33.8151  -53.3659  -54.8060 H         1 UNK         0.0786 
    121 H121       33.1349  -51.9894  -55.6735 H         1 UNK         0.0786 
    122 H122       34.4486  -50.8255  -53.9723 H         1 UNK         0.3032 
    123 H123       35.7228  -49.7055  -50.8152 H         1 UNK         0.1094 
    124 H124       36.9590  -51.3577  -52.3424 H         1 UNK         0.0794 
    125 H125       36.5574  -50.3320  -53.7152 H         1 UNK         0.0794 
    126 H126       37.5812  -49.7233  -52.4216 H         1 UNK         0.0794 
    127 H127       34.0109  -48.5760  -52.7080 H         1 UNK         0.3016 
@<TRIPOS>BOND
     1    1    2 1    
     2    1   67 1    
     3    1   68 1    
     4    1   69 1    
     5    2    3 2    
     6    2    4 am   BACKBONE|DICT|INTERRES
     7    4    5 1    
     8    4   70 1    
     9    5    6 1    
    10    5   65 1    
    11    5   71 1    
    12    6    7 1    
    13    6   72 1    
    14    6   73 1    
    15    7    8 1    
    16    8    9 1    
    17    8   74 1    
    18    8   75 1    
    19    9   10 ar   
    20    9   14 ar   
    21   10   11 ar   
    22   10   76 1    
    23   11   12 ar   
    24   11   48 1    
    25   12   13 ar   
    26   12   77 1    
    27   13   14 ar   
    28   13   15 1    
    29   14   78 1    
    30   15   16 1    
    31   15   79 1    
    32   15   80 1    
    33   16   17 1    
    34   17   18 1    
    35   17   81 1    
    36   17   82 1    
    37   18   19 1    
    38   18   22 1    
    39   18   83 1    
    40   19   20 am   BACKBONE|DICT|INTERRES
    41   19   21 2    
    42   20   84 1    
    43   20   85 1    
    44   22   23 am   BACKBONE|DICT|INTERRES
    45   22   86 1    
    46   23   24 2    
    47   23   25 1    
    48   25   26 1    
    49   25   27 1    
    50   25   87 1    
    51   26   88 1    
    52   26   89 1    
    53   26   90 1    
    54   27   28 am   BACKBONE|DICT|INTERRES
    55   27   91 1    
    56   28   29 2    
    57   28   30 1    
    58   30   31 1    
    59   30   32 1    
    60   30   92 1    
    61   31   93 1    
    62   31   94 1    
    63   31   95 1    
    64   32   33 am   BACKBONE|DICT|INTERRES
    65   32   96 1    
    66   33   34 2    
    67   33   35 1    
    68   35   36 1    
    69   35   37 1    
    70   35   97 1    
    71   36   98 1    
    72   36   99 1    
    73   36  100 1    
    74   37   38 am   BACKBONE|DICT|INTERRES
    75   37  101 1    
    76   38   39 2    
    77   38   40 1    
    78   40   41 1    
    79   40   42 1    
    80   40  102 1    
    81   41  103 1    
    82   41  104 1    
    83   41  105 1    
    84   42   43 am   BACKBONE|DICT|INTERRES
    85   42  106 1    
    86   43   44 2    
    87   43   45 1    
    88   45   46 1    
    89   45   49 1    
    90   45  107 1    
    91   46   47 1    
    92   46  108 1    
    93   46  109 1    
    94   47   48 1    
    95   48  110 1    
    96   48  111 1    
    97   49   50 am   BACKBONE|DICT|INTERRES
    98   49  112 1    
    99   50   51 2    
   100   50   52 1    
   101   52   53 1    
   102   52   54 1    
   103   52  113 1    
   104   53  114 1    
   105   53  115 1    
   106   53  116 1    
   107   54   55 am   BACKBONE|DICT|INTERRES
   108   54  117 1    
   109   55   56 2    
   110   55   57 1    
   111   57   58 1    
   112   57   59 1    
   113   57  118 1    
   114   58  119 1    
   115   58  120 1    
   116   58  121 1    
   117   59   60 am   BACKBONE|DICT|INTERRES
   118   59  122 1    
   119   60   61 2    
   120   60   62 1    
   121   62   63 1    
   122   62   64 1    
   123   62  123 1    
   124   63  124 1    
   125   63  125 1    
   126   63  126 1    
   127   64   65 am   BACKBONE|DICT|INTERRES
   128   64  127 1    
   129   65   66 2    
@<TRIPOS>SUBSTRUCTURE
     1 UNK         1 GROUP             0       ****    0 ROOT    
