@<TRIPOS>MOLECULE
3R134
127   129    1
SMALL
USER_CHARGES


@<TRIPOS>ATOM
      1 CA         31.4078  -44.9868  -50.4122 C.3       0 UNK        -0.1968 
      2 C          32.9121  -44.8406  -50.5572 C.2       0 UNK         0.4852 
      3 O          33.6631  -45.3975  -49.7548 O.2       0 UNK        -0.5359 
      4 N          33.3562  -44.0908  -51.5757 N.am      1 UNK        -0.4300 
      5 CA         34.7769  -43.8493  -51.8710 C.3       1 UNK         0.0863 
      6 C6         35.0150  -42.6297  -52.8016 C.3       11 UNK        -0.0953 
      7 S7         33.9832  -41.1776  -52.3856 S.3       11 UNK        -0.2369 
      8 C8         32.9686  -40.9677  -53.8883 C.3       11 UNK         0.0226 
      9 C9         32.1637  -42.2134  -54.2395 C.ar      11 UNK        -0.0699 
     10 C10        30.9853  -42.5192  -53.5532 C.ar      11 UNK        -0.0804 
     11 C11        30.2424  -43.6629  -53.8711 C.ar      11 UNK        -0.0871 
     12 C12        30.7034  -44.5039  -54.8960 C.ar      11 UNK        -0.1008 
     13 C13        31.8896  -44.2181  -55.5780 C.ar      11 UNK        -0.0735 
     14 C14        32.6027  -43.0628  -55.2569 C.ar      11 UNK        -0.0945 
     15 C15        32.4466  -45.1760  -56.6239 C.3       11 UNK         0.0169 
     16 S16        31.2889  -45.5772  -57.9683 S.3       11 UNK        -0.2669 
     17 C17        30.7931  -43.9388  -58.6108 C.3       11 UNK        -0.0850 
     18 CA         29.2715  -43.6746  -58.4275 C.3       10 UNK         0.0855 
     19 C          28.8624  -42.2522  -58.9042 C.2       10 UNK         0.5543 
     20 N          27.7635  -42.0888  -59.6315 N.am      10 UNK        -0.7343 
     21 O          29.5432  -41.2753  -58.6019 O.2       10 UNK        -0.5027 
     22 N          28.4667  -44.7492  -59.0405 N.am      10 UNK        -0.4495 
     23 C          27.7624  -45.6578  -58.3582 C.2       10 UNK         0.4903 
     24 O          27.5760  -45.6109  -57.1411 O.2       10 UNK        -0.4860 
     25 CA         27.2149  -46.8398  -59.1788 C.3       9 UNK         0.0227 
     26 CB         28.3634  -47.6739  -59.7750 C.3       9 UNK        -0.1964 
     27 N          26.3986  -47.7123  -58.3351 N.am      9 UNK        -0.4231 
     28 C          25.0919  -47.5378  -58.0978 C.2       9 UNK         0.5014 
     29 O          24.4035  -46.6940  -58.6762 O.2       9 UNK        -0.5270 
     30 CA         24.4477  -48.4249  -57.0128 C.3       8 UNK         0.0284 
     31 CB         22.9557  -48.7180  -57.2829 C.3       8 UNK        -0.1977 
     32 N          25.1930  -49.6574  -56.7255 N.am      8 UNK        -0.4342 
     33 C          25.3838  -50.7140  -57.5334 C.2       8 UNK         0.5039 
     34 O          24.9154  -50.7968  -58.6694 O.2       8 UNK        -0.5547 
     35 CA         26.2551  -51.8714  -57.0029 C.3       7 UNK         0.0281 
     36 CB         27.3452  -52.2596  -58.0188 C.3       7 UNK        -0.1963 
     37 N          26.8937  -51.5454  -55.7254 N.am      7 UNK        -0.4444 
     38 C          26.3830  -51.8166  -54.5155 C.2       7 UNK         0.5104 
     39 O          25.3480  -52.4592  -54.3397 O.2       7 UNK        -0.5100 
     40 CA         27.1286  -51.2476  -53.2920 C.3       6 UNK         0.0396 
     41 CB         27.9719  -52.3436  -52.6226 C.3       6 UNK        -0.1801 
     42 N          27.9814  -50.0954  -53.6099 N.am      6 UNK        -0.4747 
     43 C          27.5206  -48.8956  -54.0045 C.2       6 UNK         0.5012 
     44 O          26.3203  -48.6380  -54.0979 O.2       6 UNK        -0.5003 
     45 CA         28.5571  -47.8342  -54.4414 C.3       5 UNK         0.0782 
     46 C46        28.8187  -46.7915  -53.3185 C.3       11 UNK        -0.0868 
     47 S47        27.8679  -45.2653  -53.6448 S.3       11 UNK        -0.2515 
     48 C48        28.9704  -43.9339  -53.0590 C.3       11 UNK         0.0199 
     49 N          29.7886  -48.4262  -54.9799 N.am      5 UNK        -0.4607 
     50 C          29.8174  -49.2028  -56.0752 C.2       4 UNK         0.5031 
     51 O          28.8240  -49.4110  -56.7737 O.2       4 UNK        -0.5119 
     52 CA         31.1305  -49.9342  -56.4191 C.3       4 UNK         0.0263 
     53 CB         31.8257  -49.2813  -57.6227 C.3       4 UNK        -0.1967 
     54 N          32.0881  -50.0415  -55.3137 N.am      4 UNK        -0.4237 
     55 C          31.8615  -50.6304  -54.1305 C.2       3 UNK         0.4908 
     56 O          30.7976  -51.1746  -53.8356 O.2       3 UNK        -0.5102 
     57 CA         32.9888  -50.5818  -53.0822 C.3       3 UNK         0.0241 
     58 CB         33.6722  -51.9546  -52.9724 C.3       3 UNK        -0.1971 
     59 N          34.0125  -49.5515  -53.3065 N.am      3 UNK        -0.4139 
     60 C          33.7948  -48.2295  -53.3283 C.2       2 UNK         0.5016 
     61 O          32.6742  -47.7125  -53.2550 O.2       2 UNK        -0.5319 
     62 CA         35.0373  -47.3410  -53.4776 C.3       2 UNK         0.0286 
     63 CB         35.5519  -47.3141  -54.9276 C.3       2 UNK        -0.1963 
     64 N          34.6709  -45.9972  -53.0532 N.am      2 UNK        -0.4790 
     65 C          35.4639  -45.1110  -52.4391 C.2       1 UNK         0.5024 
     66 O          36.6773  -45.2646  -52.2926 O.2       1 UNK        -0.4888 
     67 H67        31.1553  -45.4742  -49.4706 H         1 UNK         0.0892 
     68 H68        30.9271  -44.0093  -50.4235 H         1 UNK         0.0892 
     69 H69        31.0093  -45.5930  -51.2251 H         1 UNK         0.0892 
     70 H70        32.7005  -43.6410  -52.2005 H         1 UNK         0.3107 
     71 H71        35.2659  -43.6268  -50.9199 H         1 UNK         0.0773 
     72 H72        34.8678  -42.8977  -53.8467 H         1 UNK         0.0680 
     73 H73        36.0595  -42.3203  -52.7334 H         1 UNK         0.0680 
     74 H74        33.6195  -40.6863  -54.7177 H         1 UNK         0.0650 
     75 H75        32.2894  -40.1273  -53.7386 H         1 UNK         0.0650 
     76 H76        30.6462  -41.8597  -52.7652 H         1 UNK         0.1397 
     77 H77        30.1546  -45.3891  -55.1799 H         1 UNK         0.1363 
     78 H78        33.5169  -42.8337  -55.7873 H         1 UNK         0.1355 
     79 H79        33.3666  -44.7866  -57.0627 H         1 UNK         0.0707 
     80 H80        32.7129  -46.1054  -56.1211 H         1 UNK         0.0707 
     81 H81        31.0617  -43.8917  -59.6673 H         1 UNK         0.1034 
     82 H82        31.3809  -43.1629  -58.1172 H         1 UNK         0.1034 
     83 H83        29.0845  -43.6534  -57.3523 H         1 UNK         0.0482 
     84 H84        27.1786  -42.8774  -59.8578 H         1 UNK         0.3460 
     85 H85        27.5030  -41.1628  -59.9328 H         1 UNK         0.3460 
     86 H86        28.5581  -44.8459  -60.0413 H         1 UNK         0.2989 
     87 H87        26.6085  -46.4452  -59.9966 H         1 UNK         0.0559 
     88 H88        27.9897  -48.5666  -60.2769 H         1 UNK         0.0848 
     89 H89        29.0682  -47.9919  -59.0070 H         1 UNK         0.0848 
     90 H90        28.9282  -47.1034  -60.5127 H         1 UNK         0.0848 
     91 H91        26.9037  -48.3926  -57.7821 H         1 UNK         0.3144 
     92 H92        24.4972  -47.8367  -56.0952 H         1 UNK         0.0727 
     93 H93        22.5233  -49.3355  -56.4957 H         1 UNK         0.0790 
     94 H94        22.8082  -49.2315  -58.2333 H         1 UNK         0.0790 
     95 H95        22.3765  -47.7947  -57.3221 H         1 UNK         0.0790 
     96 H96        25.6281  -49.6765  -55.8098 H         1 UNK         0.3215 
     97 H97        25.5967  -52.7330  -56.8730 H         1 UNK         0.0863 
     98 H98        27.9719  -53.0673  -57.6407 H         1 UNK         0.0808 
     99 H99        27.9928  -51.4173  -58.2629 H         1 UNK         0.0808 
    100 H100       26.9023  -52.6071  -58.9531 H         1 UNK         0.0808 
    101 H101       27.7317  -50.9783  -55.7836 H         1 UNK         0.3118 
    102 H102       26.3755  -50.9154  -52.5743 H         1 UNK         0.0546 
    103 H103       28.7147  -52.7559  -53.3064 H         1 UNK         0.0828 
    104 H104       27.3427  -53.1708  -52.2916 H         1 UNK         0.0828 
    105 H105       28.4966  -51.9646  -51.7455 H         1 UNK         0.0828 
    106 H106       28.9837  -50.2632  -53.6026 H         1 UNK         0.3005 
    107 H107       28.1001  -47.3262  -55.2932 H         1 UNK         0.1257 
    108 H108       28.5512  -47.1673  -52.3286 H         1 UNK         0.0775 
    109 H109       29.8794  -46.5498  -53.2476 H         1 UNK         0.0775 
    110 H110       28.3786  -43.0175  -53.0400 H         1 UNK         0.0840 
    111 H111       29.2333  -44.1392  -52.0232 H         1 UNK         0.0840 
    112 H112       30.6382  -48.2967  -54.4453 H         1 UNK         0.2987 
    113 H113       30.8507  -50.9510  -56.7024 H         1 UNK         0.0785 
    114 H114       31.1366  -49.1581  -58.4590 H         1 UNK         0.0798 
    115 H115       32.6557  -49.8914  -57.9791 H         1 UNK         0.0798 
    116 H116       32.2187  -48.2964  -57.3730 H         1 UNK         0.0798 
    117 H117       32.9904  -49.6135  -55.4571 H         1 UNK         0.3079 
    118 H118       32.5138  -50.3611  -52.1239 H         1 UNK         0.0794 
    119 H119       32.9420  -52.7408  -52.7735 H         1 UNK         0.0786 
    120 H120       34.3949  -51.9756  -52.1564 H         1 UNK         0.0786 
    121 H121       34.1941  -52.2206  -53.8925 H         1 UNK         0.0786 
    122 H122       34.9629  -49.8835  -53.3921 H         1 UNK         0.3032 
    123 H123       35.8163  -47.7290  -52.8168 H         1 UNK         0.1094 
    124 H124       36.4256  -46.6692  -55.0233 H         1 UNK         0.0794 
    125 H125       35.8499  -48.3092  -55.2595 H         1 UNK         0.0794 
    126 H126       34.7952  -46.9513  -55.6217 H         1 UNK         0.0794 
    127 H127       33.6726  -45.8252  -53.0771 H         1 UNK         0.3016 
@<TRIPOS>BOND
     1    1    2 1    
     2    1   67 1    
     3    1   68 1    
     4    1   69 1    
     5    2    3 2    
     6    2    4 am   BACKBONE|DICT|INTERRES
     7    4    5 1    
     8    4   70 1    
     9    5    6 1    
    10    5   65 1    
    11    5   71 1    
    12    6    7 1    
    13    6   72 1    
    14    6   73 1    
    15    7    8 1    
    16    8    9 1    
    17    8   74 1    
    18    8   75 1    
    19    9   10 ar   
    20    9   14 ar   
    21   10   11 ar   
    22   10   76 1    
    23   11   12 ar   
    24   11   48 1    
    25   12   13 ar   
    26   12   77 1    
    27   13   14 ar   
    28   13   15 1    
    29   14   78 1    
    30   15   16 1    
    31   15   79 1    
    32   15   80 1    
    33   16   17 1    
    34   17   18 1    
    35   17   81 1    
    36   17   82 1    
    37   18   19 1    
    38   18   22 1    
    39   18   83 1    
    40   19   20 am   BACKBONE|DICT|INTERRES
    41   19   21 2    
    42   20   84 1    
    43   20   85 1    
    44   22   23 am   BACKBONE|DICT|INTERRES
    45   22   86 1    
    46   23   24 2    
    47   23   25 1    
    48   25   26 1    
    49   25   27 1    
    50   25   87 1    
    51   26   88 1    
    52   26   89 1    
    53   26   90 1    
    54   27   28 am   BACKBONE|DICT|INTERRES
    55   27   91 1    
    56   28   29 2    
    57   28   30 1    
    58   30   31 1    
    59   30   32 1    
    60   30   92 1    
    61   31   93 1    
    62   31   94 1    
    63   31   95 1    
    64   32   33 am   BACKBONE|DICT|INTERRES
    65   32   96 1    
    66   33   34 2    
    67   33   35 1    
    68   35   36 1    
    69   35   37 1    
    70   35   97 1    
    71   36   98 1    
    72   36   99 1    
    73   36  100 1    
    74   37   38 am   BACKBONE|DICT|INTERRES
    75   37  101 1    
    76   38   39 2    
    77   38   40 1    
    78   40   41 1    
    79   40   42 1    
    80   40  102 1    
    81   41  103 1    
    82   41  104 1    
    83   41  105 1    
    84   42   43 am   BACKBONE|DICT|INTERRES
    85   42  106 1    
    86   43   44 2    
    87   43   45 1    
    88   45   46 1    
    89   45   49 1    
    90   45  107 1    
    91   46   47 1    
    92   46  108 1    
    93   46  109 1    
    94   47   48 1    
    95   48  110 1    
    96   48  111 1    
    97   49   50 am   BACKBONE|DICT|INTERRES
    98   49  112 1    
    99   50   51 2    
   100   50   52 1    
   101   52   53 1    
   102   52   54 1    
   103   52  113 1    
   104   53  114 1    
   105   53  115 1    
   106   53  116 1    
   107   54   55 am   BACKBONE|DICT|INTERRES
   108   54  117 1    
   109   55   56 2    
   110   55   57 1    
   111   57   58 1    
   112   57   59 1    
   113   57  118 1    
   114   58  119 1    
   115   58  120 1    
   116   58  121 1    
   117   59   60 am   BACKBONE|DICT|INTERRES
   118   59  122 1    
   119   60   61 2    
   120   60   62 1    
   121   62   63 1    
   122   62   64 1    
   123   62  123 1    
   124   63  124 1    
   125   63  125 1    
   126   63  126 1    
   127   64   65 am   BACKBONE|DICT|INTERRES
   128   64  127 1    
   129   65   66 2    
@<TRIPOS>SUBSTRUCTURE
     1 UNK         1 GROUP             0       ****    0 ROOT    
