@<TRIPOS>MOLECULE
3R134
127   129    1
SMALL
USER_CHARGES


@<TRIPOS>ATOM
      1 CA         37.2674  -46.6042  -53.1220 C.3       0 UNK        -0.1968 
      2 C          35.8254  -46.1872  -53.3711 C.2       0 UNK         0.4852 
      3 O          34.9730  -47.0480  -53.5871 O.2       0 UNK        -0.5359 
      4 N          35.5550  -44.8759  -53.3470 N.am      1 UNK        -0.4300 
      5 CA         34.2334  -44.2671  -53.5262 C.3       1 UNK         0.0863 
      6 C6         34.3511  -42.7498  -53.8221 C.3       11 UNK        -0.0953 
      7 S7         35.2152  -42.4353  -55.3995 S.3       11 UNK        -0.2369 
      8 C8         33.8563  -41.8879  -56.4820 C.3       11 UNK         0.0226 
      9 C9         32.7488  -42.9265  -56.5897 C.ar      11 UNK        -0.0699 
     10 C10        32.9497  -44.1027  -57.3202 C.ar      11 UNK        -0.0804 
     11 C11        31.9375  -45.0635  -57.4050 C.ar      11 UNK        -0.0871 
     12 C12        30.7204  -44.8382  -56.7575 C.ar      11 UNK        -0.1008 
     13 C13        30.4995  -43.6575  -56.0467 C.ar      11 UNK        -0.0735 
     14 C14        31.5184  -42.7060  -55.9619 C.ar      11 UNK        -0.0945 
     15 C15        29.1491  -43.4004  -55.4014 C.3       11 UNK         0.0169 
     16 S16        29.0600  -44.0929  -53.7250 S.3       11 UNK        -0.2669 
     17 C17        27.2930  -43.8083  -53.3644 C.3       11 UNK        -0.0850 
     18 CA         26.4870  -45.1128  -53.1296 C.3       10 UNK         0.0855 
     19 C          25.0010  -44.7629  -52.8356 C.2       10 UNK         0.5543 
     20 N          24.6179  -44.6917  -51.5680 N.am      10 UNK        -0.7343 
     21 O          24.2138  -44.5018  -53.7429 O.2       10 UNK        -0.5027 
     22 N          26.6641  -46.0823  -54.2262 N.am      10 UNK        -0.4495 
     23 C          26.1171  -47.3050  -54.2804 C.2       10 UNK         0.4903 
     24 O          25.3703  -47.7552  -53.4101 O.2       10 UNK        -0.4860 
     25 CA         26.5197  -48.2134  -55.4601 C.3       9 UNK         0.0227 
     26 CB         25.4184  -49.2351  -55.8183 C.3       9 UNK        -0.1964 
     27 N          26.9952  -47.5181  -56.6637 N.am      9 UNK        -0.4231 
     28 C          26.2835  -46.7154  -57.4724 C.2       9 UNK         0.5014 
     29 O          25.1423  -46.3310  -57.2174 O.2       9 UNK        -0.5270 
     30 CA         26.9086  -46.3041  -58.8179 C.3       8 UNK         0.0284 
     31 CB         27.4717  -44.8739  -58.7909 C.3       8 UNK        -0.1977 
     32 N          27.9253  -47.2525  -59.2881 N.am      8 UNK        -0.4342 
     33 C          28.0364  -47.6771  -60.5553 C.2       8 UNK         0.5039 
     34 O          27.3952  -47.2052  -61.4956 O.2       8 UNK        -0.5547 
     35 CA         29.0021  -48.8489  -60.8305 C.3       7 UNK         0.0281 
     36 CB         30.3486  -48.3325  -61.3630 C.3       7 UNK        -0.1963 
     37 N          29.2350  -49.7059  -59.6634 N.am      7 UNK        -0.4444 
     38 C          28.2942  -50.4302  -59.0404 C.2       7 UNK         0.5104 
     39 O          27.1429  -50.5511  -59.4591 O.2       7 UNK        -0.5100 
     40 CA         28.6750  -51.1147  -57.7128 C.3       6 UNK         0.0396 
     41 CB         28.7239  -52.6404  -57.8934 C.3       6 UNK        -0.1801 
     42 N          29.9250  -50.6776  -57.0770 N.am      6 UNK        -0.4747 
     43 C          30.2704  -49.4339  -56.7139 C.2       6 UNK         0.5012 
     44 O          29.6074  -48.4300  -56.9946 O.2       6 UNK        -0.5003 
     45 CA         31.5526  -49.3273  -55.8609 C.3       5 UNK         0.0782 
     46 C46        32.1854  -47.9158  -55.8506 C.3       11 UNK        -0.0868 
     47 S47        33.1766  -47.5561  -57.3387 S.3       11 UNK        -0.2515 
     48 C48        32.1420  -46.3386  -58.2100 C.3       11 UNK         0.0199 
     49 N          31.2585  -49.7634  -54.4958 N.am      5 UNK        -0.4607 
     50 C          31.1791  -51.0359  -54.0826 C.2       4 UNK         0.5031 
     51 O          31.3832  -51.9973  -54.8255 O.2       4 UNK        -0.5119 
     52 CA         30.8236  -51.2967  -52.6044 C.3       4 UNK         0.0263 
     53 CB         32.0776  -51.7170  -51.8205 C.3       4 UNK        -0.1967 
     54 N          30.2085  -50.1479  -51.9345 N.am      4 UNK        -0.4237 
     55 C          28.9708  -49.6920  -52.1736 C.2       3 UNK         0.4908 
     56 O          28.1665  -50.2640  -52.9091 O.2       3 UNK        -0.5102 
     57 CA         28.5635  -48.3619  -51.5059 C.3       3 UNK         0.0241 
     58 CB         27.6453  -48.6188  -50.3007 C.3       3 UNK        -0.1971 
     59 N          29.6727  -47.4886  -51.0952 N.am      3 UNK        -0.4139 
     60 C          30.6193  -47.0061  -51.9124 C.2       2 UNK         0.5016 
     61 O          30.7042  -47.3056  -53.1055 O.2       2 UNK        -0.5319 
     62 CA         31.6705  -46.0808  -51.2861 C.3       2 UNK         0.0286 
     63 CB         32.5179  -46.8312  -50.2373 C.3       2 UNK        -0.1963 
     64 N          32.5329  -45.5804  -52.3524 N.am      2 UNK        -0.4790 
     65 C          33.3646  -44.5379  -52.2817 C.2       1 UNK         0.5024 
     66 O          33.4912  -43.8300  -51.2802 O.2       1 UNK        -0.4888 
     67 H67        37.6499  -47.1584  -53.9786 H         1 UNK         0.0892 
     68 H68        37.9184  -45.7461  -52.9553 H         1 UNK         0.0892 
     69 H69        37.3245  -47.2490  -52.2454 H         1 UNK         0.0892 
     70 H70        36.3022  -44.2234  -53.1592 H         1 UNK         0.3107 
     71 H71        33.7508  -44.7412  -54.3846 H         1 UNK         0.0773 
     72 H72        34.9016  -42.2427  -53.0275 H         1 UNK         0.0680 
     73 H73        33.3665  -42.2809  -53.8467 H         1 UNK         0.0680 
     74 H74        34.2572  -41.6831  -57.4756 H         1 UNK         0.0650 
     75 H75        33.4650  -40.9401  -56.1090 H         1 UNK         0.0650 
     76 H76        33.8976  -44.2749  -57.8118 H         1 UNK         0.1397 
     77 H77        29.9427  -45.5875  -56.8056 H         1 UNK         0.1363 
     78 H78        31.3515  -41.7933  -55.4063 H         1 UNK         0.1355 
     79 H79        28.9505  -42.3282  -55.3591 H         1 UNK         0.0707 
     80 H80        28.3587  -43.8344  -56.0146 H         1 UNK         0.0707 
     81 H81        27.2398  -43.1731  -52.4780 H         1 UNK         0.1034 
     82 H82        26.8413  -43.2252  -54.1697 H         1 UNK         0.1034 
     83 H83        26.8976  -45.5930  -52.2392 H         1 UNK         0.0482 
     84 H84        23.6625  -44.4473  -51.3588 H         1 UNK         0.3460 
     85 H85        25.2586  -44.8907  -50.8158 H         1 UNK         0.3460 
     86 H86        27.2765  -45.7964  -54.9739 H         1 UNK         0.2989 
     87 H87        27.3799  -48.7828  -55.1054 H         1 UNK         0.0559 
     88 H88        25.2124  -49.8983  -54.9772 H         1 UNK         0.0848 
     89 H89        25.7106  -49.8632  -56.6593 H         1 UNK         0.0848 
     90 H90        24.4817  -48.7419  -56.0798 H         1 UNK         0.0848 
     91 H91        27.9611  -47.7369  -56.8968 H         1 UNK         0.3144 
     92 H92        26.0746  -46.3092  -59.5235 H         1 UNK         0.0727 
     93 H93        28.3862  -44.8076  -58.2094 H         1 UNK         0.0790 
     94 H94        26.7538  -44.1740  -58.3611 H         1 UNK         0.0790 
     95 H95        27.6982  -44.5256  -59.7987 H         1 UNK         0.0790 
     96 H96        28.5059  -47.7015  -58.5895 H         1 UNK         0.3215 
     97 H97        28.5441  -49.4671  -61.6058 H         1 UNK         0.0863 
     98 H98        31.0071  -49.1548  -61.6432 H         1 UNK         0.0808 
     99 H99        30.8692  -47.7198  -60.6279 H         1 UNK         0.0808 
    100 H100       30.2045  -47.7184  -62.2533 H         1 UNK         0.0808 
    101 H101       30.1534  -49.6745  -59.2460 H         1 UNK         0.3118 
    102 H102       27.8749  -50.8873  -57.0067 H         1 UNK         0.0546 
    103 H103       29.5326  -52.9406  -58.5608 H         1 UNK         0.0828 
    104 H104       27.7928  -53.0169  -58.3197 H         1 UNK         0.0828 
    105 H105       28.8677  -53.1496  -56.9401 H         1 UNK         0.0828 
    106 H106       30.5183  -51.4242  -56.7322 H         1 UNK         0.3005 
    107 H107       32.2904  -50.0149  -56.2815 H         1 UNK         0.1257 
    108 H108       32.8775  -47.8369  -55.0116 H         1 UNK         0.0775 
    109 H109       31.4369  -47.1474  -55.6664 H         1 UNK         0.0775 
    110 H110       32.6122  -46.0936  -59.1634 H         1 UNK         0.0840 
    111 H111       31.1816  -46.7933  -58.4539 H         1 UNK         0.0840 
    112 H112       31.0360  -49.0126  -53.8464 H         1 UNK         0.2987 
    113 H113       30.1119  -52.1249  -52.5835 H         1 UNK         0.0785 
    114 H114       32.5445  -52.5937  -52.2719 H         1 UNK         0.0798 
    115 H115       31.8341  -51.9773  -50.7903 H         1 UNK         0.0798 
    116 H116       32.8262  -50.9237  -51.8004 H         1 UNK         0.0798 
    117 H117       30.7982  -49.6157  -51.3121 H         1 UNK         0.3079 
    118 H118       27.9951  -47.8068  -52.2502 H         1 UNK         0.0794 
    119 H119       27.2504  -47.6869  -49.8957 H         1 UNK         0.0786 
    120 H120       28.1676  -49.1426  -49.4992 H         1 UNK         0.0786 
    121 H121       26.7884  -49.2305  -50.5876 H         1 UNK         0.0786 
    122 H122       29.6846  -47.2094  -50.1245 H         1 UNK         0.3032 
    123 H123       31.1523  -45.2387  -50.8217 H         1 UNK         0.1094 
    124 H124       33.0461  -47.6764  -50.6811 H         1 UNK         0.0794 
    125 H125       33.2632  -46.1775  -49.7840 H         1 UNK         0.0794 
    126 H126       31.9025  -47.2175  -49.4244 H         1 UNK         0.0794 
    127 H127       32.4611  -46.1120  -53.2130 H         1 UNK         0.3016 
@<TRIPOS>BOND
     1    1    2 1    
     2    1   67 1    
     3    1   68 1    
     4    1   69 1    
     5    2    3 2    
     6    2    4 am   BACKBONE|DICT|INTERRES
     7    4    5 1    
     8    4   70 1    
     9    5    6 1    
    10    5   65 1    
    11    5   71 1    
    12    6    7 1    
    13    6   72 1    
    14    6   73 1    
    15    7    8 1    
    16    8    9 1    
    17    8   74 1    
    18    8   75 1    
    19    9   10 ar   
    20    9   14 ar   
    21   10   11 ar   
    22   10   76 1    
    23   11   12 ar   
    24   11   48 1    
    25   12   13 ar   
    26   12   77 1    
    27   13   14 ar   
    28   13   15 1    
    29   14   78 1    
    30   15   16 1    
    31   15   79 1    
    32   15   80 1    
    33   16   17 1    
    34   17   18 1    
    35   17   81 1    
    36   17   82 1    
    37   18   19 1    
    38   18   22 1    
    39   18   83 1    
    40   19   20 am   BACKBONE|DICT|INTERRES
    41   19   21 2    
    42   20   84 1    
    43   20   85 1    
    44   22   23 am   BACKBONE|DICT|INTERRES
    45   22   86 1    
    46   23   24 2    
    47   23   25 1    
    48   25   26 1    
    49   25   27 1    
    50   25   87 1    
    51   26   88 1    
    52   26   89 1    
    53   26   90 1    
    54   27   28 am   BACKBONE|DICT|INTERRES
    55   27   91 1    
    56   28   29 2    
    57   28   30 1    
    58   30   31 1    
    59   30   32 1    
    60   30   92 1    
    61   31   93 1    
    62   31   94 1    
    63   31   95 1    
    64   32   33 am   BACKBONE|DICT|INTERRES
    65   32   96 1    
    66   33   34 2    
    67   33   35 1    
    68   35   36 1    
    69   35   37 1    
    70   35   97 1    
    71   36   98 1    
    72   36   99 1    
    73   36  100 1    
    74   37   38 am   BACKBONE|DICT|INTERRES
    75   37  101 1    
    76   38   39 2    
    77   38   40 1    
    78   40   41 1    
    79   40   42 1    
    80   40  102 1    
    81   41  103 1    
    82   41  104 1    
    83   41  105 1    
    84   42   43 am   BACKBONE|DICT|INTERRES
    85   42  106 1    
    86   43   44 2    
    87   43   45 1    
    88   45   46 1    
    89   45   49 1    
    90   45  107 1    
    91   46   47 1    
    92   46  108 1    
    93   46  109 1    
    94   47   48 1    
    95   48  110 1    
    96   48  111 1    
    97   49   50 am   BACKBONE|DICT|INTERRES
    98   49  112 1    
    99   50   51 2    
   100   50   52 1    
   101   52   53 1    
   102   52   54 1    
   103   52  113 1    
   104   53  114 1    
   105   53  115 1    
   106   53  116 1    
   107   54   55 am   BACKBONE|DICT|INTERRES
   108   54  117 1    
   109   55   56 2    
   110   55   57 1    
   111   57   58 1    
   112   57   59 1    
   113   57  118 1    
   114   58  119 1    
   115   58  120 1    
   116   58  121 1    
   117   59   60 am   BACKBONE|DICT|INTERRES
   118   59  122 1    
   119   60   61 2    
   120   60   62 1    
   121   62   63 1    
   122   62   64 1    
   123   62  123 1    
   124   63  124 1    
   125   63  125 1    
   126   63  126 1    
   127   64   65 am   BACKBONE|DICT|INTERRES
   128   64  127 1    
   129   65   66 2    
@<TRIPOS>SUBSTRUCTURE
     1 UNK         1 GROUP             0       ****    0 ROOT    
