@<TRIPOS>MOLECULE
3R134
127   129    1
SMALL
USER_CHARGES


@<TRIPOS>ATOM
      1 CA         33.4720  -46.6784  -48.5161 C.3       0 UNK        -0.1968 
      2 C          33.6438  -46.6396  -50.0266 C.2       0 UNK         0.4852 
      3 O          33.7113  -47.6926  -50.6596 O.2       0 UNK        -0.5359 
      4 N          33.6993  -45.4366  -50.6146 N.am      1 UNK        -0.4300 
      5 CA         33.8720  -45.2081  -52.0561 C.3       1 UNK         0.0863 
      6 C6         34.1127  -43.7053  -52.3532 C.3       11 UNK        -0.0953 
      7 S7         35.1709  -43.4308  -53.8121 S.3       11 UNK        -0.2369 
      8 C8         34.1700  -42.2665  -54.7905 C.3       11 UNK         0.0226 
      9 C9         32.9625  -42.9488  -55.4123 C.ar      11 UNK        -0.0699 
     10 C10        33.1281  -43.7837  -56.5192 C.ar      11 UNK        -0.0804 
     11 C11        32.0323  -44.4412  -57.0846 C.ar      11 UNK        -0.0871 
     12 C12        30.7589  -44.2536  -56.5388 C.ar      11 UNK        -0.1008 
     13 C13        30.5784  -43.3959  -55.4483 C.ar      11 UNK        -0.0735 
     14 C14        31.6833  -42.7492  -54.8876 C.ar      11 UNK        -0.0945 
     15 C15        29.1973  -43.1781  -54.8535 C.3       11 UNK         0.0169 
     16 S16        28.4184  -41.6490  -55.4609 S.3       11 UNK        -0.2669 
     17 C17        27.8924  -42.1107  -57.1478 C.3       11 UNK        -0.0850 
     18 CA         26.4114  -42.5726  -57.1951 C.3       10 UNK         0.0855 
     19 C          25.8802  -42.6622  -58.6552 C.2       10 UNK         0.5543 
     20 N          25.2479  -43.7540  -59.0666 N.am      10 UNK        -0.7343 
     21 O          26.0280  -41.7167  -59.4255 O.2       10 UNK        -0.5027 
     22 N          26.2172  -43.8121  -56.4230 N.am      10 UNK        -0.4495 
     23 C          25.2502  -44.0276  -55.5269 C.2       10 UNK         0.4903 
     24 O          24.3626  -43.2168  -55.2576 O.2       10 UNK        -0.4860 
     25 CA         25.2760  -45.4051  -54.8396 C.3       9 UNK         0.0227 
     26 CB         24.3194  -45.4856  -53.6352 C.3       9 UNK        -0.1964 
     27 N          24.9384  -46.4640  -55.7923 N.am      9 UNK        -0.4231 
     28 C          25.7915  -47.0167  -56.6621 C.2       9 UNK         0.5014 
     29 O          26.9850  -46.7129  -56.7472 O.2       9 UNK        -0.5270 
     30 CA         25.1971  -48.0342  -57.6383 C.3       8 UNK         0.0284 
     31 CB         24.6571  -47.3235  -58.8954 C.3       8 UNK        -0.1977 
     32 N          26.2320  -48.9984  -57.9974 N.am      8 UNK        -0.4342 
     33 C          26.0156  -50.1849  -58.5760 C.2       8 UNK         0.5039 
     34 O          24.9015  -50.5944  -58.9069 O.2       8 UNK        -0.5547 
     35 CA         27.2430  -51.0771  -58.8262 C.3       7 UNK         0.0281 
     36 CB         27.9167  -50.7049  -60.1572 C.3       7 UNK        -0.1963 
     37 N          28.2431  -51.0515  -57.7552 N.am      7 UNK        -0.4444 
     38 C          28.0475  -51.4216  -56.4835 C.2       7 UNK         0.5104 
     39 O          26.9530  -51.7626  -56.0340 O.2       7 UNK        -0.5100 
     40 CA         29.2704  -51.4463  -55.5448 C.3       6 UNK         0.0396 
     41 CB         29.8560  -52.8698  -55.4690 C.3       6 UNK        -0.1801 
     42 N          30.3255  -50.4573  -55.8189 N.am      6 UNK        -0.4747 
     43 C          31.1473  -50.3607  -56.8747 C.2       6 UNK         0.5012 
     44 O          31.0595  -51.0748  -57.8740 O.2       6 UNK        -0.5003 
     45 CA         32.2540  -49.2912  -56.8154 C.3       5 UNK         0.0782 
     46 C46        31.7324  -47.9076  -57.2685 C.3       11 UNK        -0.0868 
     47 S47        33.1110  -46.8693  -57.8456 S.3       11 UNK        -0.2515 
     48 C48        32.2383  -45.3388  -58.2938 C.3       11 UNK         0.0199 
     49 N          32.8909  -49.2433  -55.4944 N.am      5 UNK        -0.4607 
     50 C          33.7546  -50.1662  -55.0477 C.2       4 UNK         0.5031 
     51 O          34.1697  -51.1028  -55.7310 O.2       4 UNK        -0.5119 
     52 CA         34.2229  -50.0410  -53.5874 C.3       4 UNK         0.0263 
     53 CB         35.3750  -49.0309  -53.4635 C.3       4 UNK        -0.1967 
     54 N          33.1360  -49.6694  -52.6800 N.am      4 UNK        -0.4237 
     55 C          32.0738  -50.4415  -52.4080 C.2       3 UNK         0.4908 
     56 O          31.9449  -51.5969  -52.8112 O.2       3 UNK        -0.5102 
     57 CA         30.9538  -49.8211  -51.5574 C.3       3 UNK         0.0241 
     58 CB         31.1841  -50.0971  -50.0627 C.3       3 UNK        -0.1971 
     59 N          30.8029  -48.3806  -51.7765 N.am      3 UNK        -0.4139 
     60 C          30.3241  -47.8264  -52.8997 C.2       2 UNK         0.5016 
     61 O          29.9520  -48.4701  -53.8789 O.2       2 UNK        -0.5319 
     62 CA         30.2766  -46.2909  -52.9441 C.3       2 UNK         0.0286 
     63 CB         29.0297  -45.7830  -52.2001 C.3       2 UNK        -0.1963 
     64 N          31.4784  -45.6732  -52.3756 N.am      2 UNK        -0.4790 
     65 C          32.7129  -45.8029  -52.8895 C.2       1 UNK         0.5024 
     66 O          32.9562  -46.4266  -53.9231 O.2       1 UNK        -0.4888 
     67 H67        34.3135  -47.1978  -48.0586 H         1 UNK         0.0892 
     68 H68        33.4147  -45.6792  -48.0851 H         1 UNK         0.0892 
     69 H69        32.5595  -47.2141  -48.2560 H         1 UNK         0.0892 
     70 H70        33.6378  -44.6068  -50.0418 H         1 UNK         0.3107 
     71 H71        34.7728  -45.7595  -52.3358 H         1 UNK         0.0773 
     72 H72        33.1721  -43.1598  -52.4424 H         1 UNK         0.0680 
     73 H73        34.6389  -43.2379  -51.5192 H         1 UNK         0.0680 
     74 H74        34.7931  -41.8463  -55.5813 H         1 UNK         0.0650 
     75 H75        33.8668  -41.4274  -54.1623 H         1 UNK         0.0650 
     76 H76        34.1164  -43.9379  -56.9305 H         1 UNK         0.1397 
     77 H77        29.9096  -44.7691  -56.9659 H         1 UNK         0.1363 
     78 H78        31.5447  -42.0940  -54.0385 H         1 UNK         0.1355 
     79 H79        28.5545  -44.0382  -55.0411 H         1 UNK         0.0707 
     80 H80        29.2864  -43.0961  -53.7706 H         1 UNK         0.0707 
     81 H81        28.0372  -41.2269  -57.7720 H         1 UNK         0.1034 
     82 H82        28.5517  -42.8736  -57.5613 H         1 UNK         0.1034 
     83 H83        25.8185  -41.7780  -56.7384 H         1 UNK         0.0482 
     84 H84        25.0996  -44.5206  -58.4331 H         1 UNK         0.3460 
     85 H85        24.9008  -43.7973  -60.0118 H         1 UNK         0.3460 
     86 H86        26.8513  -44.5760  -56.6271 H         1 UNK         0.2989 
     87 H87        26.2892  -45.5680  -54.4653 H         1 UNK         0.0559 
     88 H88        24.4003  -46.4474  -53.1284 H         1 UNK         0.0848 
     89 H89        24.5533  -44.7141  -52.9002 H         1 UNK         0.0848 
     90 H90        23.2785  -45.3487  -53.9310 H         1 UNK         0.0848 
     91 H91        23.9677  -46.7435  -55.8228 H         1 UNK         0.3144 
     92 H92        24.3838  -48.5650  -57.1386 H         1 UNK         0.0727 
     93 H93        24.1897  -48.0269  -59.5844 H         1 UNK         0.0790 
     94 H94        25.4512  -46.8074  -59.4366 H         1 UNK         0.0790 
     95 H95        23.8989  -46.5840  -58.6354 H         1 UNK         0.0790 
     96 H96        27.1705  -48.7295  -57.7268 H         1 UNK         0.3215 
     97 H97        26.8834  -52.1053  -58.9044 H         1 UNK         0.0863 
     98 H98        28.3361  -49.6984  -60.1303 H         1 UNK         0.0808 
     99 H99        27.2011  -50.7387  -60.9800 H         1 UNK         0.0808 
    100 H100       28.7223  -51.3975  -60.4018 H         1 UNK         0.0808 
    101 H101       29.2064  -50.8742  -58.0262 H         1 UNK         0.3118 
    102 H102       28.8987  -51.1935  -54.5506 H         1 UNK         0.0546 
    103 H103       30.6777  -52.9250  -54.7559 H         1 UNK         0.0828 
    104 H104       30.2291  -53.2097  -56.4354 H         1 UNK         0.0828 
    105 H105       29.0990  -53.5853  -55.1453 H         1 UNK         0.0828 
    106 H106       30.4110  -49.7456  -55.0933 H         1 UNK         0.3005 
    107 H107       33.0087  -49.6169  -57.5361 H         1 UNK         0.1257 
    108 H108       31.2002  -47.4016  -56.4601 H         1 UNK         0.0775 
    109 H109       31.0267  -48.0017  -58.0968 H         1 UNK         0.0775 
    110 H110       32.8306  -44.8028  -59.0368 H         1 UNK         0.0840 
    111 H111       31.2894  -45.5768  -58.7769 H         1 UNK         0.0840 
    112 H112       32.6391  -48.4698  -54.8911 H         1 UNK         0.2987 
    113 H113       34.5953  -51.0186  -53.2736 H         1 UNK         0.0785 
    114 H114       35.7364  -48.9653  -52.4369 H         1 UNK         0.0798 
    115 H115       36.2193  -49.3260  -54.0877 H         1 UNK         0.0798 
    116 H116       35.0741  -48.0310  -53.7760 H         1 UNK         0.0798 
    117 H117       33.2147  -48.7727  -52.2078 H         1 UNK         0.3079 
    118 H118       30.0181  -50.3026  -51.8504 H         1 UNK         0.0794 
    119 H119       30.3627  -49.7147  -49.4566 H         1 UNK         0.0786 
    120 H120       32.1080  -49.6435  -49.7027 H         1 UNK         0.0786 
    121 H121       31.2539  -51.1690  -49.8725 H         1 UNK         0.0786 
    122 H122       31.1343  -47.7717  -51.0433 H         1 UNK         0.3032 
    123 H123       30.2085  -45.9916  -53.9925 H         1 UNK         0.1094 
    124 H124       29.0136  -46.1147  -51.1611 H         1 UNK         0.0794 
    125 H125       28.9724  -44.6962  -52.1961 H         1 UNK         0.0794 
    126 H126       28.1194  -46.1544  -52.6730 H         1 UNK         0.0794 
    127 H127       31.3677  -45.1566  -51.5153 H         1 UNK         0.3016 
@<TRIPOS>BOND
     1    1    2 1    
     2    1   67 1    
     3    1   68 1    
     4    1   69 1    
     5    2    3 2    
     6    2    4 am   BACKBONE|DICT|INTERRES
     7    4    5 1    
     8    4   70 1    
     9    5    6 1    
    10    5   65 1    
    11    5   71 1    
    12    6    7 1    
    13    6   72 1    
    14    6   73 1    
    15    7    8 1    
    16    8    9 1    
    17    8   74 1    
    18    8   75 1    
    19    9   10 ar   
    20    9   14 ar   
    21   10   11 ar   
    22   10   76 1    
    23   11   12 ar   
    24   11   48 1    
    25   12   13 ar   
    26   12   77 1    
    27   13   14 ar   
    28   13   15 1    
    29   14   78 1    
    30   15   16 1    
    31   15   79 1    
    32   15   80 1    
    33   16   17 1    
    34   17   18 1    
    35   17   81 1    
    36   17   82 1    
    37   18   19 1    
    38   18   22 1    
    39   18   83 1    
    40   19   20 am   BACKBONE|DICT|INTERRES
    41   19   21 2    
    42   20   84 1    
    43   20   85 1    
    44   22   23 am   BACKBONE|DICT|INTERRES
    45   22   86 1    
    46   23   24 2    
    47   23   25 1    
    48   25   26 1    
    49   25   27 1    
    50   25   87 1    
    51   26   88 1    
    52   26   89 1    
    53   26   90 1    
    54   27   28 am   BACKBONE|DICT|INTERRES
    55   27   91 1    
    56   28   29 2    
    57   28   30 1    
    58   30   31 1    
    59   30   32 1    
    60   30   92 1    
    61   31   93 1    
    62   31   94 1    
    63   31   95 1    
    64   32   33 am   BACKBONE|DICT|INTERRES
    65   32   96 1    
    66   33   34 2    
    67   33   35 1    
    68   35   36 1    
    69   35   37 1    
    70   35   97 1    
    71   36   98 1    
    72   36   99 1    
    73   36  100 1    
    74   37   38 am   BACKBONE|DICT|INTERRES
    75   37  101 1    
    76   38   39 2    
    77   38   40 1    
    78   40   41 1    
    79   40   42 1    
    80   40  102 1    
    81   41  103 1    
    82   41  104 1    
    83   41  105 1    
    84   42   43 am   BACKBONE|DICT|INTERRES
    85   42  106 1    
    86   43   44 2    
    87   43   45 1    
    88   45   46 1    
    89   45   49 1    
    90   45  107 1    
    91   46   47 1    
    92   46  108 1    
    93   46  109 1    
    94   47   48 1    
    95   48  110 1    
    96   48  111 1    
    97   49   50 am   BACKBONE|DICT|INTERRES
    98   49  112 1    
    99   50   51 2    
   100   50   52 1    
   101   52   53 1    
   102   52   54 1    
   103   52  113 1    
   104   53  114 1    
   105   53  115 1    
   106   53  116 1    
   107   54   55 am   BACKBONE|DICT|INTERRES
   108   54  117 1    
   109   55   56 2    
   110   55   57 1    
   111   57   58 1    
   112   57   59 1    
   113   57  118 1    
   114   58  119 1    
   115   58  120 1    
   116   58  121 1    
   117   59   60 am   BACKBONE|DICT|INTERRES
   118   59  122 1    
   119   60   61 2    
   120   60   62 1    
   121   62   63 1    
   122   62   64 1    
   123   62  123 1    
   124   63  124 1    
   125   63  125 1    
   126   63  126 1    
   127   64   65 am   BACKBONE|DICT|INTERRES
   128   64  127 1    
   129   65   66 2    
@<TRIPOS>SUBSTRUCTURE
     1 UNK         1 GROUP             0       ****    0 ROOT    
