@<TRIPOS>MOLECULE
3R134
127   129    1
SMALL
USER_CHARGES


@<TRIPOS>ATOM
      1 CA         33.1414  -47.6697  -58.1495 C.3       0 UNK        -0.1968 
      2 C          33.1096  -47.4197  -56.6502 C.2       0 UNK         0.4852 
      3 O          32.6260  -48.2689  -55.9017 O.2       0 UNK        -0.5359 
      4 N          33.6369  -46.2718  -56.2025 N.am      1 UNK        -0.4300 
      5 CA         33.6865  -45.8314  -54.7981 C.3       1 UNK         0.0863 
      6 C6         34.2638  -44.4014  -54.6628 C.3       11 UNK        -0.0953 
      7 S7         33.3995  -43.1846  -55.7160 S.3       11 UNK        -0.2369 
      8 C8         32.7507  -41.9976  -54.5006 C.3       11 UNK         0.0226 
      9 C9         31.4289  -42.4420  -53.8886 C.ar      11 UNK        -0.0699 
     10 C10        31.4061  -43.1211  -52.6668 C.ar      11 UNK        -0.0804 
     11 C11        30.1902  -43.4402  -52.0533 C.ar      11 UNK        -0.0871 
     12 C12        28.9902  -43.0872  -52.6798 C.ar      11 UNK        -0.1008 
     13 C13        28.9987  -42.4170  -53.9082 C.ar      11 UNK        -0.0735 
     14 C14        30.2219  -42.1054  -54.5107 C.ar      11 UNK        -0.0945 
     15 C15        27.6910  -41.9597  -54.5430 C.3       11 UNK         0.0169 
     16 S16        26.6511  -43.3591  -55.0675 S.3       11 UNK        -0.2669 
     17 C17        26.3804  -43.0293  -56.8481 C.3       11 UNK        -0.0850 
     18 CA         26.3110  -44.3330  -57.7011 C.3       10 UNK         0.0855 
     19 C          25.9595  -44.0605  -59.1949 C.2       10 UNK         0.5543 
     20 N          26.5051  -44.8056  -60.1490 N.am      10 UNK        -0.7343 
     21 O          25.1552  -43.1812  -59.4941 O.2       10 UNK        -0.5027 
     22 N          27.4729  -45.2126  -57.4906 N.am      10 UNK        -0.4495 
     23 C          28.7504  -44.8922  -57.7320 C.2       10 UNK         0.4903 
     24 O          29.1193  -43.8536  -58.2804 O.2       10 UNK        -0.4860 
     25 CA         29.8044  -45.8844  -57.2231 C.3       9 UNK         0.0227 
     26 CB         30.1763  -45.5046  -55.7840 C.3       9 UNK        -0.1964 
     27 N          29.3847  -47.2893  -57.2509 N.am      9 UNK        -0.4231 
     28 C          29.1097  -47.9883  -58.3613 C.2       9 UNK         0.5014 
     29 O          29.0930  -47.5025  -59.4927 O.2       9 UNK        -0.5270 
     30 CA         28.7994  -49.4787  -58.1792 C.3       8 UNK         0.0284 
     31 CB         30.0776  -50.2744  -57.8583 C.3       8 UNK        -0.1977 
     32 N          27.8075  -49.6743  -57.1188 N.am      8 UNK        -0.4342 
     33 C          26.5789  -50.1702  -57.3204 C.2       8 UNK         0.5039 
     34 O          26.1650  -50.5638  -58.4122 O.2       8 UNK        -0.5547 
     35 CA         25.6377  -50.2407  -56.1067 C.3       7 UNK         0.0281 
     36 CB         25.8999  -51.5089  -55.2807 C.3       7 UNK        -0.1963 
     37 N          25.7053  -49.0638  -55.2389 N.am      7 UNK        -0.4444 
     38 C          25.2819  -47.8385  -55.5713 C.2       7 UNK         0.5104 
     39 O          24.8446  -47.5445  -56.6833 O.2       7 UNK        -0.5100 
     40 CA         25.3584  -46.7467  -54.4886 C.3       6 UNK         0.0396 
     41 CB         24.2235  -46.8948  -53.4563 C.3       6 UNK        -0.1801 
     42 N          26.6763  -46.6205  -53.8473 N.am      6 UNK        -0.4747 
     43 C          27.2939  -47.5030  -53.0491 C.2       6 UNK         0.5012 
     44 O          26.7867  -48.5662  -52.6809 O.2       6 UNK        -0.5003 
     45 CA         28.7309  -47.1585  -52.6087 C.3       5 UNK         0.0782 
     46 C46        28.7308  -46.4664  -51.2276 C.3       11 UNK        -0.0868 
     47 S47        30.3996  -45.8982  -50.7566 S.3       11 UNK        -0.2515 
     48 C48        30.1828  -44.0928  -50.6772 C.3       11 UNK         0.0199 
     49 N          29.5676  -48.3631  -52.6210 N.am      5 UNK        -0.4607 
     50 C          29.8500  -49.0835  -53.7117 C.2       4 UNK         0.5031 
     51 O          29.5116  -48.7623  -54.8546 O.2       4 UNK        -0.5119 
     52 CA         30.5560  -50.4209  -53.4790 C.3       4 UNK         0.0263 
     53 CB         29.6099  -51.5799  -53.8532 C.3       4 UNK        -0.1967 
     54 N          31.7934  -50.4767  -54.2546 N.am      4 UNK        -0.4237 
     55 C          32.7303  -51.4262  -54.1181 C.2       3 UNK         0.4908 
     56 O          32.6589  -52.3528  -53.3093 O.2       3 UNK        -0.5102 
     57 CA         33.9683  -51.3239  -55.0162 C.3       3 UNK         0.0241 
     58 CB         33.6069  -51.4709  -56.5057 C.3       3 UNK        -0.1971 
     59 N          34.6671  -50.0614  -54.7850 N.am      3 UNK        -0.4139 
     60 C          35.6438  -49.8873  -53.8822 C.2       2 UNK         0.5016 
     61 O          36.0712  -50.7875  -53.1579 O.2       2 UNK        -0.5319 
     62 CA         36.2827  -48.4893  -53.7744 C.3       2 UNK         0.0286 
     63 CB         37.6988  -48.4997  -54.3747 C.3       2 UNK        -0.1963 
     64 N          35.4997  -47.4455  -54.4382 N.am      2 UNK        -0.4790 
     65 C          34.4559  -46.8104  -53.8870 C.2       1 UNK         0.5024 
     66 O          34.0834  -46.9872  -52.7272 O.2       1 UNK        -0.4888 
     67 H67        33.7471  -48.5482  -58.3695 H         1 UNK         0.0892 
     68 H68        32.1342  -47.8505  -58.5212 H         1 UNK         0.0892 
     69 H69        33.5565  -46.8230  -58.6957 H         1 UNK         0.0892 
     70 H70        34.0043  -45.6055  -56.8672 H         1 UNK         0.3107 
     71 H71        32.6647  -45.8092  -54.4206 H         1 UNK         0.0773 
     72 H72        35.3189  -44.3870  -54.9426 H         1 UNK         0.0680 
     73 H73        34.2244  -44.0753  -53.6222 H         1 UNK         0.0680 
     74 H74        32.6098  -41.0393  -55.0028 H         1 UNK         0.0650 
     75 H75        33.4945  -41.8163  -53.7233 H         1 UNK         0.0650 
     76 H76        32.3351  -43.3712  -52.1733 H         1 UNK         0.1397 
     77 H77        28.0457  -43.3058  -52.2005 H         1 UNK         0.1363 
     78 H78        30.2377  -41.5705  -55.4506 H         1 UNK         0.1355 
     79 H79        27.8849  -41.2895  -55.3810 H         1 UNK         0.0707 
     80 H80        27.1333  -41.3697  -53.8145 H         1 UNK         0.0707 
     81 H81        25.4514  -42.4640  -56.9404 H         1 UNK         0.1034 
     82 H82        27.1664  -42.3773  -57.2311 H         1 UNK         0.1034 
     83 H83        25.4590  -44.9032  -57.3311 H         1 UNK         0.0482 
     84 H84        27.1708  -45.5259  -59.9124 H         1 UNK         0.3460 
     85 H85        26.2658  -44.6322  -61.1123 H         1 UNK         0.3460 
     86 H86        27.2736  -46.1123  -57.0812 H         1 UNK         0.2989 
     87 H87        30.6931  -45.7945  -57.8504 H         1 UNK         0.0559 
     88 H88        29.3003  -45.2306  -55.1969 H         1 UNK         0.0848 
     89 H89        30.8388  -44.6406  -55.7798 H         1 UNK         0.0848 
     90 H90        30.6840  -46.3162  -55.2670 H         1 UNK         0.0848 
     91 H91        29.4338  -47.7930  -56.3660 H         1 UNK         0.3144 
     92 H92        28.4181  -49.8453  -59.1345 H         1 UNK         0.0727 
     93 H93        30.8144  -50.1651  -58.6549 H         1 UNK         0.0790 
     94 H94        29.8652  -51.3387  -57.7575 H         1 UNK         0.0790 
     95 H95        30.5493  -49.9416  -56.9345 H         1 UNK         0.0790 
     96 H96        28.0797  -49.3831  -56.1858 H         1 UNK         0.3215 
     97 H97        24.6179  -50.3017  -56.4936 H         1 UNK         0.0863 
     98 H98        26.8896  -51.4961  -54.8281 H         1 UNK         0.0808 
     99 H99        25.8374  -52.4016  -55.9046 H         1 UNK         0.0808 
    100 H100       25.1670  -51.6207  -54.4815 H         1 UNK         0.0808 
    101 H101       26.0664  -49.1876  -54.2957 H         1 UNK         0.3118 
    102 H102       25.1867  -45.8012  -55.0015 H         1 UNK         0.0546 
    103 H103       24.2820  -47.8336  -52.9055 H         1 UNK         0.0828 
    104 H104       23.2498  -46.8719  -53.9473 H         1 UNK         0.0828 
    105 H105       24.2393  -46.0799  -52.7327 H         1 UNK         0.0828 
    106 H106       27.1644  -45.7662  -54.0829 H         1 UNK         0.3005 
    107 H107       29.1562  -46.4642  -53.3313 H         1 UNK         0.1257 
    108 H108       28.3695  -47.1483  -50.4552 H         1 UNK         0.0775 
    109 H109       28.0453  -45.6172  -51.2230 H         1 UNK         0.0775 
    110 H110       29.2653  -43.8522  -50.1379 H         1 UNK         0.0840 
    111 H111       30.9939  -43.6754  -50.0785 H         1 UNK         0.0840 
    112 H112       29.8614  -48.7012  -51.7168 H         1 UNK         0.2987 
    113 H113       30.8140  -50.5057  -52.4212 H         1 UNK         0.0785 
    114 H114       28.6727  -51.5046  -53.3006 H         1 UNK         0.0798 
    115 H115       30.0389  -52.5521  -53.6129 H         1 UNK         0.0798 
    116 H116       29.3714  -51.5748  -54.9175 H         1 UNK         0.0798 
    117 H117       31.9457  -49.7060  -54.9062 H         1 UNK         0.3079 
    118 H118       34.6308  -52.1549  -54.7633 H         1 UNK         0.0794 
    119 H119       33.0921  -52.4151  -56.6879 H         1 UNK         0.0786 
    120 H120       34.5008  -51.4647  -57.1294 H         1 UNK         0.0786 
    121 H121       32.9526  -50.6744  -56.8570 H         1 UNK         0.0786 
    122 H122       34.2968  -49.2511  -55.2673 H         1 UNK         0.3032 
    123 H123       36.3652  -48.2534  -52.7106 H         1 UNK         0.1094 
    124 H124       38.3274  -49.2421  -53.8807 H         1 UNK         0.0794 
    125 H125       37.6860  -48.7404  -55.4385 H         1 UNK         0.0794 
    126 H126       38.1884  -47.5331  -54.2538 H         1 UNK         0.0794 
    127 H127       35.7399  -47.2322  -55.3960 H         1 UNK         0.3016 
@<TRIPOS>BOND
     1    1    2 1    
     2    1   67 1    
     3    1   68 1    
     4    1   69 1    
     5    2    3 2    
     6    2    4 am   BACKBONE|DICT|INTERRES
     7    4    5 1    
     8    4   70 1    
     9    5    6 1    
    10    5   65 1    
    11    5   71 1    
    12    6    7 1    
    13    6   72 1    
    14    6   73 1    
    15    7    8 1    
    16    8    9 1    
    17    8   74 1    
    18    8   75 1    
    19    9   10 ar   
    20    9   14 ar   
    21   10   11 ar   
    22   10   76 1    
    23   11   12 ar   
    24   11   48 1    
    25   12   13 ar   
    26   12   77 1    
    27   13   14 ar   
    28   13   15 1    
    29   14   78 1    
    30   15   16 1    
    31   15   79 1    
    32   15   80 1    
    33   16   17 1    
    34   17   18 1    
    35   17   81 1    
    36   17   82 1    
    37   18   19 1    
    38   18   22 1    
    39   18   83 1    
    40   19   20 am   BACKBONE|DICT|INTERRES
    41   19   21 2    
    42   20   84 1    
    43   20   85 1    
    44   22   23 am   BACKBONE|DICT|INTERRES
    45   22   86 1    
    46   23   24 2    
    47   23   25 1    
    48   25   26 1    
    49   25   27 1    
    50   25   87 1    
    51   26   88 1    
    52   26   89 1    
    53   26   90 1    
    54   27   28 am   BACKBONE|DICT|INTERRES
    55   27   91 1    
    56   28   29 2    
    57   28   30 1    
    58   30   31 1    
    59   30   32 1    
    60   30   92 1    
    61   31   93 1    
    62   31   94 1    
    63   31   95 1    
    64   32   33 am   BACKBONE|DICT|INTERRES
    65   32   96 1    
    66   33   34 2    
    67   33   35 1    
    68   35   36 1    
    69   35   37 1    
    70   35   97 1    
    71   36   98 1    
    72   36   99 1    
    73   36  100 1    
    74   37   38 am   BACKBONE|DICT|INTERRES
    75   37  101 1    
    76   38   39 2    
    77   38   40 1    
    78   40   41 1    
    79   40   42 1    
    80   40  102 1    
    81   41  103 1    
    82   41  104 1    
    83   41  105 1    
    84   42   43 am   BACKBONE|DICT|INTERRES
    85   42  106 1    
    86   43   44 2    
    87   43   45 1    
    88   45   46 1    
    89   45   49 1    
    90   45  107 1    
    91   46   47 1    
    92   46  108 1    
    93   46  109 1    
    94   47   48 1    
    95   48  110 1    
    96   48  111 1    
    97   49   50 am   BACKBONE|DICT|INTERRES
    98   49  112 1    
    99   50   51 2    
   100   50   52 1    
   101   52   53 1    
   102   52   54 1    
   103   52  113 1    
   104   53  114 1    
   105   53  115 1    
   106   53  116 1    
   107   54   55 am   BACKBONE|DICT|INTERRES
   108   54  117 1    
   109   55   56 2    
   110   55   57 1    
   111   57   58 1    
   112   57   59 1    
   113   57  118 1    
   114   58  119 1    
   115   58  120 1    
   116   58  121 1    
   117   59   60 am   BACKBONE|DICT|INTERRES
   118   59  122 1    
   119   60   61 2    
   120   60   62 1    
   121   62   63 1    
   122   62   64 1    
   123   62  123 1    
   124   63  124 1    
   125   63  125 1    
   126   63  126 1    
   127   64   65 am   BACKBONE|DICT|INTERRES
   128   64  127 1    
   129   65   66 2    
@<TRIPOS>SUBSTRUCTURE
     1 UNK         1 GROUP             0       ****    0 ROOT    
