@<TRIPOS>MOLECULE
3R134
127   129    1
SMALL
USER_CHARGES


@<TRIPOS>ATOM
      1 CA         38.4227  -47.1389  -52.3216 C.3       0 UNK        -0.1968 
      2 C          37.1134  -47.1643  -53.0959 C.2       0 UNK         0.4852 
      3 O          36.7185  -48.2179  -53.5980 O.2       0 UNK        -0.5359 
      4 N          36.4259  -46.0170  -53.1850 N.am      1 UNK        -0.4300 
      5 CA         35.1566  -45.8490  -53.9055 C.3       1 UNK         0.0863 
      6 C6         34.9066  -44.3762  -54.3212 C.3       11 UNK        -0.0953 
      7 S7         34.8109  -43.2062  -52.9232 S.3       11 UNK        -0.2369 
      8 C8         33.8638  -41.8319  -53.6659 C.3       11 UNK         0.0226 
      9 C9         32.4282  -42.2103  -54.0178 C.ar      11 UNK        -0.0699 
     10 C10        31.5957  -42.7891  -53.0558 C.ar      11 UNK        -0.0804 
     11 C11        30.2893  -43.1723  -53.3759 C.ar      11 UNK        -0.0871 
     12 C12        29.7991  -42.9263  -54.6604 C.ar      11 UNK        -0.1008 
     13 C13        30.6076  -42.3149  -55.6229 C.ar      11 UNK        -0.0735 
     14 C14        31.9251  -41.9704  -55.3016 C.ar      11 UNK        -0.0945 
     15 C15        30.0370  -42.0087  -56.9980 C.3       11 UNK         0.0169 
     16 S16        30.0389  -43.4801  -58.0657 S.3       11 UNK        -0.2669 
     17 C17        28.7740  -42.9948  -59.2900 C.3       11 UNK        -0.0850 
     18 CA         27.3738  -43.5843  -58.9459 C.3       10 UNK         0.0855 
     19 C          26.2213  -42.9534  -59.7879 C.2       10 UNK         0.5543 
     20 N          25.1508  -43.6797  -60.0876 N.am      10 UNK        -0.7343 
     21 O          26.2775  -41.7794  -60.1462 O.2       10 UNK        -0.5027 
     22 N          27.3696  -45.0589  -58.9006 N.am      10 UNK        -0.4495 
     23 C          27.5646  -45.8838  -59.9396 C.2       10 UNK         0.4903 
     24 O          27.7842  -45.5026  -61.0897 O.2       10 UNK        -0.4860 
     25 CA         27.5047  -47.3955  -59.6625 C.3       9 UNK         0.0227 
     26 CB         28.9084  -48.0171  -59.7395 C.3       9 UNK        -0.1964 
     27 N          26.9059  -47.7318  -58.3692 N.am      9 UNK        -0.4231 
     28 C          25.5915  -47.7759  -58.1129 C.2       9 UNK         0.5014 
     29 O          24.7247  -47.4499  -58.9265 O.2       9 UNK        -0.5270 
     30 CA         25.1988  -48.2865  -56.7106 C.3       8 UNK         0.0284 
     31 CB         23.6962  -48.6117  -56.5761 C.3       8 UNK        -0.1977 
     32 N          26.0296  -49.4231  -56.2897 N.am      8 UNK        -0.4342 
     33 C          26.1530  -50.6153  -56.8951 C.2       8 UNK         0.5039 
     34 O          25.4608  -50.9813  -57.8459 O.2       8 UNK        -0.5547 
     35 CA         27.2663  -51.5529  -56.3909 C.3       7 UNK         0.0281 
     36 CB         28.4329  -51.5664  -57.3930 C.3       7 UNK        -0.1963 
     37 N          27.7841  -51.2000  -55.0660 N.am      7 UNK        -0.4444 
     38 C          27.1337  -51.4202  -53.9154 C.2       7 UNK         0.5104 
     39 O          26.0422  -51.9853  -53.8416 O.2       7 UNK        -0.5100 
     40 CA         27.8002  -50.8950  -52.6323 C.3       6 UNK         0.0396 
     41 CB         28.8849  -51.8680  -52.1447 C.3       6 UNK        -0.1801 
     42 N          28.3772  -49.5568  -52.7850 N.am      6 UNK        -0.4747 
     43 C          27.6857  -48.4420  -53.0727 C.2       6 UNK         0.5012 
     44 O          26.4694  -48.4100  -53.2578 O.2       6 UNK        -0.5003 
     45 CA         28.5130  -47.1510  -53.2105 C.3       5 UNK         0.0782 
     46 C46        28.8841  -46.6169  -51.7981 C.3       11 UNK        -0.0868 
     47 S47        30.2250  -45.3895  -51.7604 S.3       11 UNK        -0.2515 
     48 C48        29.4194  -43.8665  -52.3381 C.3       11 UNK         0.0199 
     49 N          29.6583  -47.3711  -54.1012 N.am      5 UNK        -0.4607 
     50 C          29.5577  -47.6602  -55.4080 C.2       4 UNK         0.5031 
     51 O          28.4933  -47.6896  -56.0257 O.2       4 UNK        -0.5119 
     52 CA         30.8485  -48.0344  -56.1482 C.3       4 UNK         0.0263 
     53 CB         31.5138  -46.7860  -56.7500 C.3       4 UNK        -0.1967 
     54 N          31.7872  -48.7478  -55.2806 N.am      4 UNK        -0.4237 
     55 C          31.6069  -50.0084  -54.8566 C.2       3 UNK         0.4908 
     56 O          30.6500  -50.7071  -55.1890 O.2       3 UNK        -0.5102 
     57 CA         32.6389  -50.5795  -53.8680 C.3       3 UNK         0.0241 
     58 CB         33.8116  -51.2220  -54.6249 C.3       3 UNK        -0.1971 
     59 N          33.1530  -49.5799  -52.9305 N.am      3 UNK        -0.4139 
     60 C          32.4104  -48.9414  -52.0146 C.2       2 UNK         0.5016 
     61 O          31.2193  -49.1829  -51.8111 O.2       2 UNK        -0.5319 
     62 CA         33.1037  -47.8064  -51.2354 C.3       2 UNK         0.0286 
     63 CB         33.7375  -48.3525  -49.9466 C.3       2 UNK        -0.1963 
     64 N          34.1228  -47.0768  -52.0056 N.am      2 UNK        -0.4790 
     65 C          33.9374  -46.4903  -53.2006 C.2       1 UNK         0.5024 
     66 O          32.8539  -46.4919  -53.7807 O.2       1 UNK        -0.4888 
     67 H67        38.3789  -47.8378  -51.4867 H         1 UNK         0.0892 
     68 H68        39.2468  -47.4340  -52.9703 H         1 UNK         0.0892 
     69 H69        38.6425  -46.1482  -51.9239 H         1 UNK         0.0892 
     70 H70        36.7814  -45.1820  -52.7397 H         1 UNK         0.3107 
     71 H71        35.2556  -46.4072  -54.8392 H         1 UNK         0.0773 
     72 H72        33.9947  -44.3069  -54.9172 H         1 UNK         0.0680 
     73 H73        35.7096  -44.0419  -54.9797 H         1 UNK         0.0680 
     74 H74        34.3992  -41.4748  -54.5471 H         1 UNK         0.0650 
     75 H75        33.8422  -41.0010  -52.9597 H         1 UNK         0.0650 
     76 H76        31.9783  -42.9768  -52.0618 H         1 UNK         0.1397 
     77 H77        28.7875  -43.2104  -54.9172 H         1 UNK         0.1363 
     78 H78        32.5548  -41.5084  -56.0497 H         1 UNK         0.1355 
     79 H79        30.6015  -41.2107  -57.4829 H         1 UNK         0.0707 
     80 H80        29.0167  -41.6387  -56.8839 H         1 UNK         0.0707 
     81 H81        28.7401  -41.9050  -59.3420 H         1 UNK         0.1034 
     82 H82        29.0979  -43.3240  -60.2782 H         1 UNK         0.1034 
     83 H83        27.1448  -43.2735  -57.9260 H         1 UNK         0.0482 
     84 H84        25.0887  -44.6428  -59.7950 H         1 UNK         0.3460 
     85 H85        24.4041  -43.2637  -60.6215 H         1 UNK         0.3460 
     86 H86        27.2002  -45.4704  -57.9950 H         1 UNK         0.2989 
     87 H87        26.8956  -47.8449  -60.4497 H         1 UNK         0.0559 
     88 H88        29.5716  -47.6058  -58.9800 H         1 UNK         0.0848 
     89 H89        29.3682  -47.8258  -60.7101 H         1 UNK         0.0848 
     90 H90        28.8727  -49.0985  -59.6074 H         1 UNK         0.0848 
     91 H91        27.5440  -47.9239  -57.5987 H         1 UNK         0.3144 
     92 H92        25.4239  -47.4750  -56.0169 H         1 UNK         0.0727 
     93 H93        23.0876  -47.7269  -56.7662 H         1 UNK         0.0790 
     94 H94        23.4560  -48.9607  -55.5718 H         1 UNK         0.0790 
     95 H95        23.3814  -49.3796  -57.2832 H         1 UNK         0.0790 
     96 H96        26.6608  -49.2270  -55.5229 H         1 UNK         0.3215 
     97 H97        26.8467  -52.5600  -56.3406 H         1 UNK         0.0863 
     98 H98        29.2015  -52.2809  -57.0975 H         1 UNK         0.0808 
     99 H99        28.9024  -50.5855  -57.4752 H         1 UNK         0.0808 
    100 H100       28.0927  -51.8507  -58.3897 H         1 UNK         0.0808 
    101 H101       28.7203  -50.8029  -55.0317 H         1 UNK         0.3118 
    102 H102       27.0300  -50.8323  -51.8608 H         1 UNK         0.0546 
    103 H103       29.6946  -51.9668  -52.8682 H         1 UNK         0.0828 
    104 H104       28.4709  -52.8637  -51.9804 H         1 UNK         0.0828 
    105 H105       29.3198  -51.5374  -51.2012 H         1 UNK         0.0828 
    106 H106       29.3771  -49.4704  -52.6214 H         1 UNK         0.3005 
    107 H107       27.8765  -46.4067  -53.6941 H         1 UNK         0.1257 
    108 H108       29.2151  -47.4305  -51.1494 H         1 UNK         0.0775 
    109 H109       28.0039  -46.1931  -51.3111 H         1 UNK         0.0775 
    110 H110       28.4350  -44.0951  -52.7486 H         1 UNK         0.0840 
    111 H111       29.2571  -43.1994  -51.4906 H         1 UNK         0.0840 
    112 H112       30.5753  -47.3213  -53.6764 H         1 UNK         0.2987 
    113 H113       30.5805  -48.7022  -56.9694 H         1 UNK         0.0785 
    114 H114       32.4558  -47.0298  -57.2408 H         1 UNK         0.0798 
    115 H115       31.7105  -46.0200  -55.9997 H         1 UNK         0.0798 
    116 H116       30.8677  -46.3281  -57.4986 H         1 UNK         0.0798 
    117 H117       32.5348  -48.1930  -54.8812 H         1 UNK         0.3079 
    118 H118       32.1406  -51.3568  -53.2851 H         1 UNK         0.0794 
    119 H119       33.4561  -51.9826  -55.3217 H         1 UNK         0.0786 
    120 H120       34.5052  -51.7108  -53.9403 H         1 UNK         0.0786 
    121 H121       34.3729  -50.4861  -55.2024 H         1 UNK         0.0786 
    122 H122       34.1231  -49.3127  -53.0278 H         1 UNK         0.3032 
    123 H123       32.3317  -47.0907  -50.9537 H         1 UNK         0.1094 
    124 H124       34.1361  -47.5481  -49.3281 H         1 UNK         0.0794 
    125 H125       32.9992  -48.8847  -49.3447 H         1 UNK         0.0794 
    126 H126       34.5495  -49.0493  -50.1584 H         1 UNK         0.0794 
    127 H127       35.0487  -47.0356  -51.6059 H         1 UNK         0.3016 
@<TRIPOS>BOND
     1    1    2 1    
     2    1   67 1    
     3    1   68 1    
     4    1   69 1    
     5    2    3 2    
     6    2    4 am   BACKBONE|DICT|INTERRES
     7    4    5 1    
     8    4   70 1    
     9    5    6 1    
    10    5   65 1    
    11    5   71 1    
    12    6    7 1    
    13    6   72 1    
    14    6   73 1    
    15    7    8 1    
    16    8    9 1    
    17    8   74 1    
    18    8   75 1    
    19    9   10 ar   
    20    9   14 ar   
    21   10   11 ar   
    22   10   76 1    
    23   11   12 ar   
    24   11   48 1    
    25   12   13 ar   
    26   12   77 1    
    27   13   14 ar   
    28   13   15 1    
    29   14   78 1    
    30   15   16 1    
    31   15   79 1    
    32   15   80 1    
    33   16   17 1    
    34   17   18 1    
    35   17   81 1    
    36   17   82 1    
    37   18   19 1    
    38   18   22 1    
    39   18   83 1    
    40   19   20 am   BACKBONE|DICT|INTERRES
    41   19   21 2    
    42   20   84 1    
    43   20   85 1    
    44   22   23 am   BACKBONE|DICT|INTERRES
    45   22   86 1    
    46   23   24 2    
    47   23   25 1    
    48   25   26 1    
    49   25   27 1    
    50   25   87 1    
    51   26   88 1    
    52   26   89 1    
    53   26   90 1    
    54   27   28 am   BACKBONE|DICT|INTERRES
    55   27   91 1    
    56   28   29 2    
    57   28   30 1    
    58   30   31 1    
    59   30   32 1    
    60   30   92 1    
    61   31   93 1    
    62   31   94 1    
    63   31   95 1    
    64   32   33 am   BACKBONE|DICT|INTERRES
    65   32   96 1    
    66   33   34 2    
    67   33   35 1    
    68   35   36 1    
    69   35   37 1    
    70   35   97 1    
    71   36   98 1    
    72   36   99 1    
    73   36  100 1    
    74   37   38 am   BACKBONE|DICT|INTERRES
    75   37  101 1    
    76   38   39 2    
    77   38   40 1    
    78   40   41 1    
    79   40   42 1    
    80   40  102 1    
    81   41  103 1    
    82   41  104 1    
    83   41  105 1    
    84   42   43 am   BACKBONE|DICT|INTERRES
    85   42  106 1    
    86   43   44 2    
    87   43   45 1    
    88   45   46 1    
    89   45   49 1    
    90   45  107 1    
    91   46   47 1    
    92   46  108 1    
    93   46  109 1    
    94   47   48 1    
    95   48  110 1    
    96   48  111 1    
    97   49   50 am   BACKBONE|DICT|INTERRES
    98   49  112 1    
    99   50   51 2    
   100   50   52 1    
   101   52   53 1    
   102   52   54 1    
   103   52  113 1    
   104   53  114 1    
   105   53  115 1    
   106   53  116 1    
   107   54   55 am   BACKBONE|DICT|INTERRES
   108   54  117 1    
   109   55   56 2    
   110   55   57 1    
   111   57   58 1    
   112   57   59 1    
   113   57  118 1    
   114   58  119 1    
   115   58  120 1    
   116   58  121 1    
   117   59   60 am   BACKBONE|DICT|INTERRES
   118   59  122 1    
   119   60   61 2    
   120   60   62 1    
   121   62   63 1    
   122   62   64 1    
   123   62  123 1    
   124   63  124 1    
   125   63  125 1    
   126   63  126 1    
   127   64   65 am   BACKBONE|DICT|INTERRES
   128   64  127 1    
   129   65   66 2    
@<TRIPOS>SUBSTRUCTURE
     1 UNK         1 GROUP             0       ****    0 ROOT    
