@<TRIPOS>MOLECULE
3R134
127   129    1
SMALL
USER_CHARGES


@<TRIPOS>ATOM
      1 CA         32.7457  -44.0155  -58.5494 C.3       0 UNK        -0.1968 
      2 C          33.7167  -44.4904  -57.4778 C.2       0 UNK         0.4852 
      3 O          34.8925  -44.7040  -57.7750 O.2       0 UNK        -0.5359 
      4 N          33.2224  -44.6520  -56.2414 N.am      1 UNK        -0.4300 
      5 CA         33.9583  -45.0866  -55.0437 C.3       1 UNK         0.0863 
      6 C6         35.0213  -44.0683  -54.5439 C.3       11 UNK        -0.0953 
      7 S7         34.4033  -42.3573  -54.3805 S.3       11 UNK        -0.2369 
      8 C8         33.4969  -42.4047  -52.7933 C.3       11 UNK         0.0226 
      9 C9         32.0812  -42.9830  -52.8685 C.ar      11 UNK        -0.0699 
     10 C10        31.5192  -43.5560  -51.7223 C.ar      11 UNK        -0.0804 
     11 C11        30.2120  -44.0554  -51.7350 C.ar      11 UNK        -0.0871 
     12 C12        29.4706  -44.0081  -52.9196 C.ar      11 UNK        -0.1008 
     13 C13        30.0204  -43.4497  -54.0756 C.ar      11 UNK        -0.0735 
     14 C14        31.3112  -42.9163  -54.0370 C.ar      11 UNK        -0.0945 
     15 C15        29.2319  -43.4368  -55.3740 C.3       11 UNK         0.0169 
     16 S16        28.1829  -41.9591  -55.5187 S.3       11 UNK        -0.2669 
     17 C17        27.9179  -41.8997  -57.3261 C.3       11 UNK        -0.0850 
     18 CA         26.5983  -42.5651  -57.7988 C.3       10 UNK         0.0855 
     19 C          26.4324  -42.3790  -59.3369 C.2       10 UNK         0.5543 
     20 N          26.6045  -43.4128  -60.1544 N.am      10 UNK        -0.7343 
     21 O          26.1453  -41.2748  -59.7918 O.2       10 UNK        -0.5027 
     22 N          26.4969  -43.9639  -57.3555 N.am      10 UNK        -0.4495 
     23 C          25.3862  -44.7090  -57.4083 C.2       10 UNK         0.4903 
     24 O          24.2766  -44.2524  -57.6874 O.2       10 UNK        -0.4860 
     25 CA         25.5307  -46.2157  -57.1042 C.3       9 UNK         0.0227 
     26 CB         24.6274  -47.0708  -58.0171 C.3       9 UNK        -0.1964 
     27 N          26.9091  -46.7301  -57.1285 N.am      9 UNK        -0.4231 
     28 C          27.7755  -46.7302  -58.1551 C.2       9 UNK         0.5014 
     29 O          27.5565  -46.1935  -59.2421 O.2       9 UNK        -0.5270 
     30 CA         29.1226  -47.4335  -57.9163 C.3       8 UNK         0.0284 
     31 CB         30.0825  -46.5377  -57.1171 C.3       8 UNK        -0.1977 
     32 N          28.9513  -48.7152  -57.2289 N.am      8 UNK        -0.4342 
     33 C          28.5401  -49.8413  -57.8303 C.2       8 UNK         0.5039 
     34 O          28.3735  -49.9507  -59.0456 O.2       8 UNK        -0.5547 
     35 CA         28.2392  -51.0439  -56.9211 C.3       7 UNK         0.0281 
     36 CB         29.5013  -51.8898  -56.6828 C.3       7 UNK        -0.1963 
     37 N          27.6594  -50.6210  -55.6426 N.am      7 UNK        -0.4444 
     38 C          26.3757  -50.2538  -55.4998 C.2       7 UNK         0.5104 
     39 O          25.5458  -50.3239  -56.4059 O.2       7 UNK        -0.5100 
     40 CA         25.9221  -49.7167  -54.1288 C.3       6 UNK         0.0396 
     41 CB         25.1476  -50.8004  -53.3617 C.3       6 UNK        -0.1801 
     42 N          27.0110  -49.2222  -53.2840 N.am      6 UNK        -0.4747 
     43 C          27.7469  -48.1276  -53.5263 C.2       6 UNK         0.5012 
     44 O          27.5910  -47.3991  -54.5060 O.2       6 UNK        -0.5003 
     45 CA         28.9000  -47.8460  -52.5425 C.3       5 UNK         0.0782 
     46 C46        28.3956  -47.0114  -51.3429 C.3       11 UNK        -0.0868 
     47 S47        29.7706  -46.4070  -50.3067 S.3       11 UNK        -0.2515 
     48 C48        29.5922  -44.6006  -50.4549 C.3       11 UNK         0.0199 
     49 N          29.5663  -49.0815  -52.1049 N.am      5 UNK        -0.4607 
     50 C          30.1607  -49.9557  -52.9240 C.2       4 UNK         0.5031 
     51 O          30.2015  -49.8252  -54.1503 O.2       4 UNK        -0.5119 
     52 CA         30.7559  -51.2119  -52.2856 C.3       4 UNK         0.0263 
     53 CB         29.7701  -52.3885  -52.3747 C.3       4 UNK        -0.1967 
     54 N          31.9664  -51.5254  -53.0294 N.am      4 UNK        -0.4237 
     55 C          33.1369  -51.8891  -52.4965 C.2       3 UNK         0.4908 
     56 O          33.2829  -52.2182  -51.3185 O.2       3 UNK        -0.5102 
     57 CA         34.3674  -51.8526  -53.4261 C.3       3 UNK         0.0241 
     58 CB         34.6838  -53.2635  -53.9483 C.3       3 UNK        -0.1971 
     59 N          34.2509  -50.9312  -54.5668 N.am      3 UNK        -0.4139 
     60 C          34.0311  -49.6097  -54.4859 C.2       2 UNK         0.5016 
     61 O          33.9005  -49.0068  -53.4177 O.2       2 UNK        -0.5319 
     62 CA         33.9091  -48.8575  -55.8276 C.3       2 UNK         0.0286 
     63 CB         32.7867  -49.4424  -56.7073 C.3       2 UNK        -0.1963 
     64 N          33.6404  -47.4301  -55.6440 N.am      2 UNK        -0.4790 
     65 C          34.5208  -46.5157  -55.2143 C.2       1 UNK         0.5024 
     66 O          35.7076  -46.7605  -54.9857 O.2       1 UNK        -0.4888 
     67 H67        33.1905  -43.2047  -59.1260 H         1 UNK         0.0892 
     68 H68        32.5129  -44.8317  -59.2328 H         1 UNK         0.0892 
     69 H69        31.8129  -43.6480  -58.1229 H         1 UNK         0.0892 
     70 H70        32.2479  -44.4500  -56.0812 H         1 UNK         0.3107 
     71 H71        33.2115  -45.1748  -54.2538 H         1 UNK         0.0773 
     72 H72        35.4278  -44.3838  -53.5814 H         1 UNK         0.0680 
     73 H73        35.8674  -44.0400  -55.2327 H         1 UNK         0.0680 
     74 H74        33.4210  -41.3835  -52.4181 H         1 UNK         0.0650 
     75 H75        34.0935  -42.9556  -52.0646 H         1 UNK         0.0650 
     76 H76        32.0943  -43.5924  -50.8068 H         1 UNK         0.1397 
     77 H77        28.4604  -44.3913  -52.9453 H         1 UNK         0.1363 
     78 H78        31.7134  -42.4508  -54.9255 H         1 UNK         0.1355 
     79 H79        29.9235  -43.4839  -56.2153 H         1 UNK         0.0707 
     80 H80        28.6056  -44.3276  -55.4340 H         1 UNK         0.0707 
     81 H81        27.9194  -40.8451  -57.6096 H         1 UNK         0.1034 
     82 H82        28.7745  -42.3375  -57.8416 H         1 UNK         0.1034 
     83 H83        25.7730  -42.0231  -57.3330 H         1 UNK         0.0482 
     84 H84        26.4933  -43.2799  -61.1467 H         1 UNK         0.3460 
     85 H85        26.8551  -44.3267  -59.7928 H         1 UNK         0.3460 
     86 H86        27.3620  -44.4242  -57.1260 H         1 UNK         0.2989 
     87 H87        25.1843  -46.3488  -56.0784 H         1 UNK         0.0559 
     88 H88        23.5772  -46.8023  -57.8979 H         1 UNK         0.0848 
     89 H89        24.7152  -48.1312  -57.7821 H         1 UNK         0.0848 
     90 H90        24.8793  -46.9399  -59.0700 H         1 UNK         0.0848 
     91 H91        27.2235  -47.1185  -56.2397 H         1 UNK         0.3144 
     92 H92        29.5747  -47.6168  -58.8937 H         1 UNK         0.0727 
     93 H93        29.7533  -46.4009  -56.0866 H         1 UNK         0.0790 
     94 H94        30.1644  -45.5529  -57.5774 H         1 UNK         0.0790 
     95 H95        31.0834  -46.9654  -57.0967 H         1 UNK         0.0790 
     96 H96        29.0679  -48.7241  -56.2247 H         1 UNK         0.3215 
     97 H97        27.5133  -51.6756  -57.4386 H         1 UNK         0.0863 
     98 H98        29.2921  -52.7441  -56.0392 H         1 UNK         0.0808 
     99 H99        30.3044  -51.3134  -56.2267 H         1 UNK         0.0808 
    100 H100       29.8849  -52.2817  -57.6257 H         1 UNK         0.0808 
    101 H101       28.2983  -50.5062  -54.8657 H         1 UNK         0.3118 
    102 H102       25.2431  -48.8826  -54.3184 H         1 UNK         0.0546 
    103 H103       25.7784  -51.6586  -53.1265 H         1 UNK         0.0828 
    104 H104       24.3048  -51.1678  -53.9490 H         1 UNK         0.0828 
    105 H105       24.7421  -50.4134  -52.4268 H         1 UNK         0.0828 
    106 H106       27.2272  -49.7658  -52.4607 H         1 UNK         0.3005 
    107 H107       29.6371  -47.2528  -53.0895 H         1 UNK         0.1257 
    108 H108       27.7324  -47.6077  -50.7131 H         1 UNK         0.0775 
    109 H109       27.7954  -46.1656  -51.6804 H         1 UNK         0.0775 
    110 H110       28.5395  -44.3204  -50.3923 H         1 UNK         0.0840 
    111 H111       30.0700  -44.1376  -49.5901 H         1 UNK         0.0840 
    112 H112       29.5830  -49.2463  -51.1086 H         1 UNK         0.2987 
    113 H113       30.9933  -51.0038  -51.2399 H         1 UNK         0.0785 
    114 H114       28.8506  -52.1724  -51.8295 H         1 UNK         0.0798 
    115 H115       30.1979  -53.2934  -51.9429 H         1 UNK         0.0798 
    116 H116       29.4959  -52.6098  -53.4070 H         1 UNK         0.0798 
    117 H117       31.9464  -51.2178  -53.9928 H         1 UNK         0.3079 
    118 H118       35.2117  -51.5136  -52.8227 H         1 UNK         0.0794 
    119 H119       35.6118  -53.2776  -54.5202 H         1 UNK         0.0786 
    120 H120       33.8870  -53.6451  -54.5879 H         1 UNK         0.0786 
    121 H121       34.8044  -53.9675  -53.1236 H         1 UNK         0.0786 
    122 H122       34.3518  -51.3457  -55.4821 H         1 UNK         0.3032 
    123 H123       34.8615  -48.9638  -56.3521 H         1 UNK         0.1094 
    124 H124       31.8142  -49.3651  -56.2214 H         1 UNK         0.0794 
    125 H125       32.7212  -48.9203  -57.6621 H         1 UNK         0.0794 
    126 H126       32.9547  -50.4946  -56.9379 H         1 UNK         0.0794 
    127 H127       32.6851  -47.1385  -55.7764 H         1 UNK         0.3016 
@<TRIPOS>BOND
     1    1    2 1    
     2    1   67 1    
     3    1   68 1    
     4    1   69 1    
     5    2    3 2    
     6    2    4 am   BACKBONE|DICT|INTERRES
     7    4    5 1    
     8    4   70 1    
     9    5    6 1    
    10    5   65 1    
    11    5   71 1    
    12    6    7 1    
    13    6   72 1    
    14    6   73 1    
    15    7    8 1    
    16    8    9 1    
    17    8   74 1    
    18    8   75 1    
    19    9   10 ar   
    20    9   14 ar   
    21   10   11 ar   
    22   10   76 1    
    23   11   12 ar   
    24   11   48 1    
    25   12   13 ar   
    26   12   77 1    
    27   13   14 ar   
    28   13   15 1    
    29   14   78 1    
    30   15   16 1    
    31   15   79 1    
    32   15   80 1    
    33   16   17 1    
    34   17   18 1    
    35   17   81 1    
    36   17   82 1    
    37   18   19 1    
    38   18   22 1    
    39   18   83 1    
    40   19   20 am   BACKBONE|DICT|INTERRES
    41   19   21 2    
    42   20   84 1    
    43   20   85 1    
    44   22   23 am   BACKBONE|DICT|INTERRES
    45   22   86 1    
    46   23   24 2    
    47   23   25 1    
    48   25   26 1    
    49   25   27 1    
    50   25   87 1    
    51   26   88 1    
    52   26   89 1    
    53   26   90 1    
    54   27   28 am   BACKBONE|DICT|INTERRES
    55   27   91 1    
    56   28   29 2    
    57   28   30 1    
    58   30   31 1    
    59   30   32 1    
    60   30   92 1    
    61   31   93 1    
    62   31   94 1    
    63   31   95 1    
    64   32   33 am   BACKBONE|DICT|INTERRES
    65   32   96 1    
    66   33   34 2    
    67   33   35 1    
    68   35   36 1    
    69   35   37 1    
    70   35   97 1    
    71   36   98 1    
    72   36   99 1    
    73   36  100 1    
    74   37   38 am   BACKBONE|DICT|INTERRES
    75   37  101 1    
    76   38   39 2    
    77   38   40 1    
    78   40   41 1    
    79   40   42 1    
    80   40  102 1    
    81   41  103 1    
    82   41  104 1    
    83   41  105 1    
    84   42   43 am   BACKBONE|DICT|INTERRES
    85   42  106 1    
    86   43   44 2    
    87   43   45 1    
    88   45   46 1    
    89   45   49 1    
    90   45  107 1    
    91   46   47 1    
    92   46  108 1    
    93   46  109 1    
    94   47   48 1    
    95   48  110 1    
    96   48  111 1    
    97   49   50 am   BACKBONE|DICT|INTERRES
    98   49  112 1    
    99   50   51 2    
   100   50   52 1    
   101   52   53 1    
   102   52   54 1    
   103   52  113 1    
   104   53  114 1    
   105   53  115 1    
   106   53  116 1    
   107   54   55 am   BACKBONE|DICT|INTERRES
   108   54  117 1    
   109   55   56 2    
   110   55   57 1    
   111   57   58 1    
   112   57   59 1    
   113   57  118 1    
   114   58  119 1    
   115   58  120 1    
   116   58  121 1    
   117   59   60 am   BACKBONE|DICT|INTERRES
   118   59  122 1    
   119   60   61 2    
   120   60   62 1    
   121   62   63 1    
   122   62   64 1    
   123   62  123 1    
   124   63  124 1    
   125   63  125 1    
   126   63  126 1    
   127   64   65 am   BACKBONE|DICT|INTERRES
   128   64  127 1    
   129   65   66 2    
@<TRIPOS>SUBSTRUCTURE
     1 UNK         1 GROUP             0       ****    0 ROOT    
