@<TRIPOS>MOLECULE
3R134
127   129    1
SMALL
USER_CHARGES


@<TRIPOS>ATOM
      1 CA         35.7337  -45.6372  -56.7988 C.3       0 UNK        -0.1968 
      2 C          35.1715  -45.6215  -55.3862 C.2       0 UNK         0.4852 
      3 O          34.3580  -46.4825  -55.0446 O.2       0 UNK        -0.5359 
      4 N          35.5928  -44.6554  -54.5591 N.am      1 UNK        -0.4300 
      5 CA         35.1287  -44.4892  -53.1785 C.3       1 UNK         0.0863 
      6 C6         35.6469  -43.1893  -52.5116 C.3       11 UNK        -0.0953 
      7 S7         35.3365  -41.6823  -53.4953 S.3       11 UNK        -0.2369 
      8 C8         33.7073  -41.1410  -52.8832 C.3       11 UNK         0.0226 
      9 C9         32.5910  -42.0444  -53.3866 C.ar      11 UNK        -0.0699 
     10 C10        31.9223  -42.9023  -52.5093 C.ar      11 UNK        -0.0804 
     11 C11        30.9361  -43.7683  -52.9878 C.ar      11 UNK        -0.0871 
     12 C12        30.6104  -43.7622  -54.3472 C.ar      11 UNK        -0.1008 
     13 C13        31.2524  -42.8910  -55.2367 C.ar      11 UNK        -0.0735 
     14 C14        32.2395  -42.0334  -54.7400 C.ar      11 UNK        -0.0945 
     15 C15        30.9208  -42.8223  -56.7310 C.3       11 UNK         0.0169 
     16 S16        30.0296  -44.2545  -57.4360 S.3       11 UNK        -0.2669 
     17 C17        28.2976  -43.9090  -56.9598 C.3       11 UNK        -0.0850 
     18 CA         27.5590  -45.1822  -56.4526 C.3       10 UNK         0.0855 
     19 C          26.1747  -44.8796  -55.8038 C.2       10 UNK         0.5543 
     20 N          25.2795  -45.8531  -55.7068 N.am      10 UNK        -0.7343 
     21 O          25.9153  -43.7649  -55.3565 O.2       10 UNK        -0.5027 
     22 N          27.5500  -46.2656  -57.4513 N.am      10 UNK        -0.4495 
     23 C          26.8781  -46.2721  -58.6100 C.2       10 UNK         0.4903 
     24 O          26.1195  -45.3724  -58.9735 O.2       10 UNK        -0.4860 
     25 CA         27.0938  -47.4744  -59.5379 C.3       9 UNK         0.0227 
     26 CB         28.5239  -48.0487  -59.4984 C.3       9 UNK        -0.1964 
     27 N          26.1242  -48.5224  -59.2269 N.am      9 UNK        -0.4231 
     28 C          25.5025  -49.2798  -60.1427 C.2       9 UNK         0.5014 
     29 O          25.6731  -49.1539  -61.3569 O.2       9 UNK        -0.5270 
     30 CA         24.5452  -50.3865  -59.6532 C.3       8 UNK         0.0284 
     31 CB         25.1869  -51.7713  -59.8457 C.3       8 UNK        -0.1977 
     32 N          24.1376  -50.2495  -58.2550 N.am      8 UNK        -0.4342 
     33 C          23.2822  -49.3331  -57.7846 C.2       8 UNK         0.5039 
     34 O          22.6662  -48.5428  -58.5003 O.2       8 UNK        -0.5547 
     35 CA         23.0927  -49.2724  -56.2551 C.3       7 UNK         0.0281 
     36 CB         21.7717  -49.9489  -55.8532 C.3       7 UNK        -0.1963 
     37 N          24.1900  -49.8523  -55.4640 N.am      7 UNK        -0.4444 
     38 C          25.4672  -49.4514  -55.5024 C.2       7 UNK         0.5104 
     39 O          25.8882  -48.5928  -56.2828 O.2       7 UNK        -0.5100 
     40 CA         26.4385  -50.1494  -54.5443 C.3       6 UNK         0.0396 
     41 CB         26.9103  -51.4899  -55.1310 C.3       6 UNK        -0.1801 
     42 N          27.5936  -49.2799  -54.3544 N.am      6 UNK        -0.4747 
     43 C          28.1959  -48.9834  -53.2005 C.2       6 UNK         0.5012 
     44 O          27.8987  -49.5084  -52.1256 O.2       6 UNK        -0.5003 
     45 CA         29.3181  -47.9210  -53.2684 C.3       5 UNK         0.0782 
     46 C46        29.8477  -47.5273  -51.8634 C.3       11 UNK        -0.0868 
     47 S47        31.1779  -46.2834  -51.9401 S.3       11 UNK        -0.2515 
     48 C48        30.2376  -44.7332  -52.0453 C.3       11 UNK         0.0199 
     49 N          30.4080  -48.3111  -54.1715 N.am      5 UNK        -0.4607 
     50 C          30.3750  -48.2942  -55.5095 C.2       4 UNK         0.5031 
     51 O          29.3586  -48.0303  -56.1519 O.2       4 UNK        -0.5119 
     52 CA         31.6806  -48.5916  -56.2687 C.3       4 UNK         0.0263 
     53 CB         31.9865  -47.4696  -57.2762 C.3       4 UNK        -0.1967 
     54 N          32.8429  -48.7490  -55.3903 N.am      4 UNK        -0.4237 
     55 C          33.2343  -49.8944  -54.8175 C.2       3 UNK         0.4908 
     56 O          32.6249  -50.9579  -54.9309 O.2       3 UNK        -0.5102 
     57 CA         34.5064  -49.8429  -53.9606 C.3       3 UNK         0.0241 
     58 CB         35.7617  -49.7533  -54.8457 C.3       3 UNK        -0.1971 
     59 N          34.4748  -48.7083  -53.0328 N.am      3 UNK        -0.4139 
     60 C          34.5847  -48.8068  -51.6993 C.2       2 UNK         0.5016 
     61 O          34.7452  -49.8779  -51.1111 O.2       2 UNK        -0.5319 
     62 CA         34.4685  -47.5158  -50.8598 C.3       2 UNK         0.0286 
     63 CB         35.5043  -47.4598  -49.7158 C.3       2 UNK        -0.1963 
     64 N          34.4636  -46.2751  -51.6475 N.am      2 UNK        -0.4790 
     65 C          35.4803  -45.7234  -52.3240 C.2       1 UNK         0.5024 
     66 O          36.6355  -46.1537  -52.3224 O.2       1 UNK        -0.4888 
     67 H67        36.2622  -46.5724  -56.9807 H         1 UNK         0.0892 
     68 H68        34.9231  -45.5567  -57.5226 H         1 UNK         0.0892 
     69 H69        36.4269  -44.8141  -56.9710 H         1 UNK         0.0892 
     70 H70        36.2689  -43.9763  -54.8768 H         1 UNK         0.3107 
     71 H71        34.0419  -44.4275  -53.2378 H         1 UNK         0.0773 
     72 H72        35.2000  -43.0637  -51.5237 H         1 UNK         0.0680 
     73 H73        36.7245  -43.2529  -52.3484 H         1 UNK         0.0680 
     74 H74        33.5237  -40.1226  -53.2282 H         1 UNK         0.0650 
     75 H75        33.7206  -41.0974  -51.7931 H         1 UNK         0.0650 
     76 H76        32.1872  -42.9167  -51.4608 H         1 UNK         0.1397 
     77 H77        29.8591  -44.4488  -54.7013 H         1 UNK         0.1363 
     78 H78        32.7546  -41.3623  -55.4140 H         1 UNK         0.1355 
     79 H79        31.8536  -42.7231  -57.2883 H         1 UNK         0.0707 
     80 H80        30.3514  -41.9130  -56.9284 H         1 UNK         0.0707 
     81 H81        27.7755  -43.4778  -57.8153 H         1 UNK         0.1034 
     82 H82        28.2965  -43.1365  -56.1888 H         1 UNK         0.1034 
     83 H83        28.1445  -45.5799  -55.6251 H         1 UNK         0.0482 
     84 H84        25.5064  -46.7862  -56.0382 H         1 UNK         0.3460 
     85 H85        24.3860  -45.6641  -55.2833 H         1 UNK         0.3460 
     86 H86        28.1416  -47.0573  -57.2129 H         1 UNK         0.2989 
     87 H87        26.9209  -47.0997  -60.5491 H         1 UNK         0.0559 
     88 H88        28.7170  -48.6067  -58.5830 H         1 UNK         0.0848 
     89 H89        29.2696  -47.2561  -59.5731 H         1 UNK         0.0848 
     90 H90        28.6921  -48.7282  -60.3339 H         1 UNK         0.0848 
     91 H91        25.9117  -48.6484  -58.2403 H         1 UNK         0.3144 
     92 H92        23.6488  -50.3367  -60.2751 H         1 UNK         0.0727 
     93 H93        24.4969  -52.5709  -59.5751 H         1 UNK         0.0790 
     94 H94        26.0895  -51.8856  -59.2439 H         1 UNK         0.0790 
     95 H95        25.4689  -51.9300  -60.8877 H         1 UNK         0.0790 
     96 H96        24.5864  -50.8602  -57.5886 H         1 UNK         0.3215 
     97 H97        23.0279  -48.2150  -55.9895 H         1 UNK         0.0863 
     98 H98        21.7859  -51.0191  -56.0636 H         1 UNK         0.0808 
     99 H99        20.9307  -49.5210  -56.4010 H         1 UNK         0.0808 
    100 H100       21.5627  -49.8162  -54.7916 H         1 UNK         0.0808 
    101 H101       23.9332  -50.5738  -54.8048 H         1 UNK         0.3118 
    102 H102       25.9286  -50.3194  -53.5938 H         1 UNK         0.0546 
    103 H103       27.6166  -51.9844  -54.4639 H         1 UNK         0.0828 
    104 H104       27.4018  -51.3570  -56.0959 H         1 UNK         0.0828 
    105 H105       26.0739  -52.1739  -55.2791 H         1 UNK         0.0828 
    106 H106       27.9077  -48.7942  -55.1927 H         1 UNK         0.3005 
    107 H107       28.8522  -47.0294  -53.6929 H         1 UNK         0.1257 
    108 H108       30.2472  -48.4031  -51.3484 H         1 UNK         0.0775 
    109 H109       29.0410  -47.1464  -51.2340 H         1 UNK         0.0775 
    110 H110       29.2222  -44.9227  -52.3963 H         1 UNK         0.0840 
    111 H111       30.1416  -44.2981  -51.0494 H         1 UNK         0.0840 
    112 H112       31.2823  -48.5448  -53.7271 H         1 UNK         0.2987 
    113 H113       31.5232  -49.5164  -56.8273 H         1 UNK         0.0785 
    114 H114       32.8918  -47.6814  -57.8450 H         1 UNK         0.0798 
    115 H115       31.1749  -47.3490  -57.9940 H         1 UNK         0.0798 
    116 H116       32.1221  -46.5093  -56.7763 H         1 UNK         0.0798 
    117 H117       33.4064  -47.9077  -55.2536 H         1 UNK         0.3079 
    118 H118       34.5548  -50.7848  -53.4100 H         1 UNK         0.0794 
    119 H119       36.6699  -49.7870  -54.2436 H         1 UNK         0.0786 
    120 H120       35.7849  -48.8333  -55.4304 H         1 UNK         0.0786 
    121 H121       35.8059  -50.5879  -55.5468 H         1 UNK         0.0786 
    122 H122       34.3593  -47.7892  -53.4469 H         1 UNK         0.3032 
    123 H123       33.4839  -47.5692  -50.3924 H         1 UNK         0.1094 
    124 H124       36.5276  -47.5161  -50.0875 H         1 UNK         0.0794 
    125 H125       35.4060  -46.5431  -49.1345 H         1 UNK         0.0794 
    126 H126       35.3685  -48.2937  -49.0260 H         1 UNK         0.0794 
    127 H127       33.5472  -45.8551  -51.7503 H         1 UNK         0.3016 
@<TRIPOS>BOND
     1    1    2 1    
     2    1   67 1    
     3    1   68 1    
     4    1   69 1    
     5    2    3 2    
     6    2    4 am   BACKBONE|DICT|INTERRES
     7    4    5 1    
     8    4   70 1    
     9    5    6 1    
    10    5   65 1    
    11    5   71 1    
    12    6    7 1    
    13    6   72 1    
    14    6   73 1    
    15    7    8 1    
    16    8    9 1    
    17    8   74 1    
    18    8   75 1    
    19    9   10 ar   
    20    9   14 ar   
    21   10   11 ar   
    22   10   76 1    
    23   11   12 ar   
    24   11   48 1    
    25   12   13 ar   
    26   12   77 1    
    27   13   14 ar   
    28   13   15 1    
    29   14   78 1    
    30   15   16 1    
    31   15   79 1    
    32   15   80 1    
    33   16   17 1    
    34   17   18 1    
    35   17   81 1    
    36   17   82 1    
    37   18   19 1    
    38   18   22 1    
    39   18   83 1    
    40   19   20 am   BACKBONE|DICT|INTERRES
    41   19   21 2    
    42   20   84 1    
    43   20   85 1    
    44   22   23 am   BACKBONE|DICT|INTERRES
    45   22   86 1    
    46   23   24 2    
    47   23   25 1    
    48   25   26 1    
    49   25   27 1    
    50   25   87 1    
    51   26   88 1    
    52   26   89 1    
    53   26   90 1    
    54   27   28 am   BACKBONE|DICT|INTERRES
    55   27   91 1    
    56   28   29 2    
    57   28   30 1    
    58   30   31 1    
    59   30   32 1    
    60   30   92 1    
    61   31   93 1    
    62   31   94 1    
    63   31   95 1    
    64   32   33 am   BACKBONE|DICT|INTERRES
    65   32   96 1    
    66   33   34 2    
    67   33   35 1    
    68   35   36 1    
    69   35   37 1    
    70   35   97 1    
    71   36   98 1    
    72   36   99 1    
    73   36  100 1    
    74   37   38 am   BACKBONE|DICT|INTERRES
    75   37  101 1    
    76   38   39 2    
    77   38   40 1    
    78   40   41 1    
    79   40   42 1    
    80   40  102 1    
    81   41  103 1    
    82   41  104 1    
    83   41  105 1    
    84   42   43 am   BACKBONE|DICT|INTERRES
    85   42  106 1    
    86   43   44 2    
    87   43   45 1    
    88   45   46 1    
    89   45   49 1    
    90   45  107 1    
    91   46   47 1    
    92   46  108 1    
    93   46  109 1    
    94   47   48 1    
    95   48  110 1    
    96   48  111 1    
    97   49   50 am   BACKBONE|DICT|INTERRES
    98   49  112 1    
    99   50   51 2    
   100   50   52 1    
   101   52   53 1    
   102   52   54 1    
   103   52  113 1    
   104   53  114 1    
   105   53  115 1    
   106   53  116 1    
   107   54   55 am   BACKBONE|DICT|INTERRES
   108   54  117 1    
   109   55   56 2    
   110   55   57 1    
   111   57   58 1    
   112   57   59 1    
   113   57  118 1    
   114   58  119 1    
   115   58  120 1    
   116   58  121 1    
   117   59   60 am   BACKBONE|DICT|INTERRES
   118   59  122 1    
   119   60   61 2    
   120   60   62 1    
   121   62   63 1    
   122   62   64 1    
   123   62  123 1    
   124   63  124 1    
   125   63  125 1    
   126   63  126 1    
   127   64   65 am   BACKBONE|DICT|INTERRES
   128   64  127 1    
   129   65   66 2    
@<TRIPOS>SUBSTRUCTURE
     1 UNK         1 GROUP             0       ****    0 ROOT    
