@<TRIPOS>MOLECULE
3R134
127   129    1
SMALL
USER_CHARGES


@<TRIPOS>ATOM
      1 CA         30.4403  -49.0653  -50.1669 C.3       0 UNK        -0.1968 
      2 C          31.7650  -48.3361  -49.9942 C.2       0 UNK         0.4852 
      3 O          32.8071  -48.9866  -49.9064 O.2       0 UNK        -0.5359 
      4 N          31.7317  -46.9948  -49.9775 N.am      1 UNK        -0.4300 
      5 CA         32.8650  -46.0742  -49.7778 C.3       1 UNK         0.0863 
      6 C6         32.4113  -44.5880  -49.7286 C.3       11 UNK        -0.0953 
      7 S7         31.2341  -44.1198  -51.0452 S.3       11 UNK        -0.2369 
      8 C8         32.2532  -43.1246  -52.1807 C.3       11 UNK         0.0226 
      9 C9         31.8381  -43.3331  -53.6334 C.ar      11 UNK        -0.0699 
     10 C10        32.7694  -43.8021  -54.5642 C.ar      11 UNK        -0.0804 
     11 C11        32.3964  -44.0381  -55.8904 C.ar      11 UNK        -0.0871 
     12 C12        31.0852  -43.7767  -56.2870 C.ar      11 UNK        -0.1008 
     13 C13        30.1375  -43.3057  -55.3745 C.ar      11 UNK        -0.0735 
     14 C14        30.5263  -43.0755  -54.0496 C.ar      11 UNK        -0.0945 
     15 C15        28.6792  -43.1221  -55.7842 C.3       11 UNK         0.0169 
     16 S16        28.4424  -42.0611  -57.2494 S.3       11 UNK        -0.2669 
     17 C17        28.3891  -43.2569  -58.6360 C.3       11 UNK        -0.0850 
     18 CA         26.9519  -43.7511  -58.9493 C.3       10 UNK         0.0855 
     19 C          26.8443  -44.3983  -60.3632 C.2       10 UNK         0.5543 
     20 N          26.1982  -45.5465  -60.5339 N.am      10 UNK        -0.7343 
     21 O          27.3437  -43.8381  -61.3357 O.2       10 UNK        -0.5027 
     22 N          26.4609  -44.6291  -57.8775 N.am      10 UNK        -0.4495 
     23 C          25.2175  -44.6246  -57.3860 C.2       10 UNK         0.4903 
     24 O          24.3430  -43.8288  -57.7332 O.2       10 UNK        -0.4860 
     25 CA         24.9047  -45.7096  -56.3369 C.3       9 UNK         0.0227 
     26 CB         23.3942  -45.8606  -56.0592 C.3       9 UNK        -0.1964 
     27 N          25.5020  -47.0134  -56.6571 N.am      9 UNK        -0.4231 
     28 C          25.3086  -47.7449  -57.7676 C.2       9 UNK         0.5014 
     29 O          24.5990  -47.3763  -58.7048 O.2       9 UNK        -0.5270 
     30 CA         26.0433  -49.0953  -57.8967 C.3       8 UNK         0.0284 
     31 CB         26.9884  -49.0736  -59.1106 C.3       8 UNK        -0.1977 
     32 N          26.8081  -49.4810  -56.7085 N.am      8 UNK        -0.4342 
     33 C          26.2867  -49.9191  -55.5547 C.2       8 UNK         0.5039 
     34 O          25.0868  -50.1353  -55.3832 O.2       8 UNK        -0.5547 
     35 CA         27.2635  -50.0888  -54.3764 C.3       7 UNK         0.0281 
     36 CB         27.8977  -51.4884  -54.3885 C.3       7 UNK        -0.1963 
     37 N          28.3199  -49.0706  -54.3550 N.am      7 UNK        -0.4444 
     38 C          28.1130  -47.7511  -54.2323 C.2       7 UNK         0.5104 
     39 O          27.0024  -47.2422  -54.0866 O.2       7 UNK        -0.5100 
     40 CA         29.3433  -46.8426  -54.3537 C.3       6 UNK         0.0396 
     41 CB         30.1585  -46.8289  -53.0577 C.3       6 UNK        -0.1801 
     42 N          30.2022  -47.2467  -55.4620 N.am      6 UNK        -0.4747 
     43 C          29.9182  -47.0530  -56.7565 C.2       6 UNK         0.5012 
     44 O          28.9125  -46.4640  -57.1612 O.2       6 UNK        -0.5003 
     45 CA         30.9008  -47.6735  -57.7708 C.3       5 UNK         0.0782 
     46 C46        31.9922  -46.6762  -58.2388 C.3       11 UNK        -0.0868 
     47 S47        33.3352  -46.3923  -57.0306 S.3       11 UNK        -0.2515 
     48 C48        33.4041  -44.5749  -56.8969 C.3       11 UNK         0.0199 
     49 N          31.4624  -48.9504  -57.3048 N.am      5 UNK        -0.4607 
     50 C          30.7381  -50.0662  -57.1508 C.2       4 UNK         0.5031 
     51 O          29.5284  -50.1223  -57.3655 O.2       4 UNK        -0.5119 
     52 CA         31.4654  -51.3303  -56.6667 C.3       4 UNK         0.0263 
     53 CB         32.2396  -51.9802  -57.8247 C.3       4 UNK        -0.1967 
     54 N          32.3613  -51.1506  -55.5196 N.am      4 UNK        -0.4237 
     55 C          32.0478  -50.5987  -54.3385 C.2       3 UNK         0.4908 
     56 O          30.9919  -50.0066  -54.1142 O.2       3 UNK        -0.5102 
     57 CA         33.0582  -50.7703  -53.1860 C.3       3 UNK         0.0241 
     58 CB         34.1635  -51.8179  -53.4572 C.3       3 UNK        -0.1971 
     59 N          33.6440  -49.4976  -52.7560 N.am      3 UNK        -0.4139 
     60 C          34.3651  -48.6500  -53.5062 C.2       2 UNK         0.5016 
     61 O          34.6286  -48.8397  -54.6944 O.2       2 UNK        -0.5319 
     62 CA         34.8720  -47.3821  -52.8004 C.3       2 UNK         0.0286 
     63 CB         35.3752  -46.3018  -53.7723 C.3       2 UNK        -0.1963 
     64 N          33.8319  -46.8450  -51.9202 N.am      2 UNK        -0.4790 
     65 C          34.0674  -46.2835  -50.7279 C.2       1 UNK         0.5024 
     66 O          35.1943  -45.9748  -50.3371 O.2       1 UNK        -0.4888 
     67 H67        29.5989  -48.3762  -50.2373 H         1 UNK         0.0892 
     68 H68        30.4591  -49.6719  -51.0724 H         1 UNK         0.0892 
     69 H69        30.2650  -49.7267  -49.3189 H         1 UNK         0.0892 
     70 H70        30.8410  -46.5279  -50.0739 H         1 UNK         0.3107 
     71 H71        33.2544  -46.3135  -48.7860 H         1 UNK         0.0773 
     72 H72        33.2637  -43.9058  -49.7217 H         1 UNK         0.0680 
     73 H73        31.9014  -44.4107  -48.7805 H         1 UNK         0.0680 
     74 H74        33.3043  -43.3849  -52.0473 H         1 UNK         0.0650 
     75 H75        32.1567  -42.0699  -51.9203 H         1 UNK         0.0650 
     76 H76        33.7864  -43.9854  -54.2517 H         1 UNK         0.1397 
     77 H77        30.8054  -43.9609  -57.3094 H         1 UNK         0.1363 
     78 H78        29.8010  -42.7259  -53.3278 H         1 UNK         0.1355 
     79 H79        28.2351  -44.1010  -55.9548 H         1 UNK         0.0707 
     80 H80        28.1140  -42.6782  -54.9635 H         1 UNK         0.0707 
     81 H81        28.8186  -42.7431  -59.4980 H         1 UNK         0.1034 
     82 H82        29.0362  -44.1113  -58.4490 H         1 UNK         0.1034 
     83 H83        26.3144  -42.8668  -59.0029 H         1 UNK         0.0482 
     84 H84        25.7262  -46.0052  -59.7640 H         1 UNK         0.3460 
     85 H85        26.1365  -45.9374  -61.4601 H         1 UNK         0.3460 
     86 H86        27.1132  -45.3378  -57.5600 H         1 UNK         0.2989 
     87 H87        25.3777  -45.3784  -55.4115 H         1 UNK         0.0559 
     88 H88        22.8447  -46.1475  -56.9564 H         1 UNK         0.0848 
     89 H89        22.9658  -44.9238  -55.7009 H         1 UNK         0.0848 
     90 H90        23.2056  -46.6146  -55.2950 H         1 UNK         0.0848 
     91 H91        26.1173  -47.3834  -55.9403 H         1 UNK         0.3144 
     92 H92        25.2819  -49.8579  -58.0721 H         1 UNK         0.0727 
     93 H93        27.4758  -50.0384  -59.2522 H         1 UNK         0.0790 
     94 H94        27.7661  -48.3172  -59.0001 H         1 UNK         0.0790 
     95 H95        26.4457  -48.8504  -60.0301 H         1 UNK         0.0790 
     96 H96        27.8212  -49.4336  -56.7894 H         1 UNK         0.3215 
     97 H97        26.6880  -49.9821  -53.4545 H         1 UNK         0.0863 
     98 H98        28.5504  -51.6362  -53.5278 H         1 UNK         0.0808 
     99 H99        28.4887  -51.6552  -55.2889 H         1 UNK         0.0808 
    100 H100       27.1314  -52.2638  -54.3528 H         1 UNK         0.0808 
    101 H101       29.2804  -49.4024  -54.4292 H         1 UNK         0.3118 
    102 H102       28.9938  -45.8266  -54.5385 H         1 UNK         0.0546 
    103 H103       29.5521  -46.4731  -52.2244 H         1 UNK         0.0828 
    104 H104       31.0157  -46.1631  -53.1500 H         1 UNK         0.0828 
    105 H105       30.5293  -47.8193  -52.8006 H         1 UNK         0.0828 
    106 H106       31.0252  -47.7861  -55.2322 H         1 UNK         0.3005 
    107 H107       30.2947  -47.9034  -58.6506 H         1 UNK         0.1257 
    108 H108       31.5441  -45.7295  -58.5420 H         1 UNK         0.0775 
    109 H109       32.4608  -47.0676  -59.1429 H         1 UNK         0.0775 
    110 H110       34.4127  -44.2898  -56.5939 H         1 UNK         0.0840 
    111 H111       33.2478  -44.1204  -57.8764 H         1 UNK         0.0840 
    112 H112       32.4476  -48.9579  -57.0789 H         1 UNK         0.2987 
    113 H113       30.6944  -52.0345  -56.3488 H         1 UNK         0.0785 
    114 H114       31.5917  -52.1389  -58.6882 H         1 UNK         0.0798 
    115 H115       32.6378  -52.9542  -57.5399 H         1 UNK         0.0798 
    116 H116       33.0739  -51.3588  -58.1529 H         1 UNK         0.0798 
    117 H117       33.2753  -51.5716  -55.6007 H         1 UNK         0.3079 
    118 H118       32.4749  -51.1320  -52.3377 H         1 UNK         0.0794 
    119 H119       34.8314  -51.5212  -54.2666 H         1 UNK         0.0786 
    120 H120       33.7352  -52.7877  -53.7149 H         1 UNK         0.0786 
    121 H121       34.7774  -51.9709  -52.5694 H         1 UNK         0.0786 
    122 H122       33.4843  -49.2575  -51.7811 H         1 UNK         0.3032 
    123 H123       35.7207  -47.7057  -52.1929 H         1 UNK         0.1094 
    124 H124       36.2303  -46.6612  -54.3460 H         1 UNK         0.0794 
    125 H125       34.6010  -46.0320  -54.4855 H         1 UNK         0.0794 
    126 H126       35.6905  -45.4004  -53.2471 H         1 UNK         0.0794 
    127 H127       32.8770  -47.0541  -52.1730 H         1 UNK         0.3016 
@<TRIPOS>BOND
     1    1    2 1    
     2    1   67 1    
     3    1   68 1    
     4    1   69 1    
     5    2    3 2    
     6    2    4 am   BACKBONE|DICT|INTERRES
     7    4    5 1    
     8    4   70 1    
     9    5    6 1    
    10    5   65 1    
    11    5   71 1    
    12    6    7 1    
    13    6   72 1    
    14    6   73 1    
    15    7    8 1    
    16    8    9 1    
    17    8   74 1    
    18    8   75 1    
    19    9   10 ar   
    20    9   14 ar   
    21   10   11 ar   
    22   10   76 1    
    23   11   12 ar   
    24   11   48 1    
    25   12   13 ar   
    26   12   77 1    
    27   13   14 ar   
    28   13   15 1    
    29   14   78 1    
    30   15   16 1    
    31   15   79 1    
    32   15   80 1    
    33   16   17 1    
    34   17   18 1    
    35   17   81 1    
    36   17   82 1    
    37   18   19 1    
    38   18   22 1    
    39   18   83 1    
    40   19   20 am   BACKBONE|DICT|INTERRES
    41   19   21 2    
    42   20   84 1    
    43   20   85 1    
    44   22   23 am   BACKBONE|DICT|INTERRES
    45   22   86 1    
    46   23   24 2    
    47   23   25 1    
    48   25   26 1    
    49   25   27 1    
    50   25   87 1    
    51   26   88 1    
    52   26   89 1    
    53   26   90 1    
    54   27   28 am   BACKBONE|DICT|INTERRES
    55   27   91 1    
    56   28   29 2    
    57   28   30 1    
    58   30   31 1    
    59   30   32 1    
    60   30   92 1    
    61   31   93 1    
    62   31   94 1    
    63   31   95 1    
    64   32   33 am   BACKBONE|DICT|INTERRES
    65   32   96 1    
    66   33   34 2    
    67   33   35 1    
    68   35   36 1    
    69   35   37 1    
    70   35   97 1    
    71   36   98 1    
    72   36   99 1    
    73   36  100 1    
    74   37   38 am   BACKBONE|DICT|INTERRES
    75   37  101 1    
    76   38   39 2    
    77   38   40 1    
    78   40   41 1    
    79   40   42 1    
    80   40  102 1    
    81   41  103 1    
    82   41  104 1    
    83   41  105 1    
    84   42   43 am   BACKBONE|DICT|INTERRES
    85   42  106 1    
    86   43   44 2    
    87   43   45 1    
    88   45   46 1    
    89   45   49 1    
    90   45  107 1    
    91   46   47 1    
    92   46  108 1    
    93   46  109 1    
    94   47   48 1    
    95   48  110 1    
    96   48  111 1    
    97   49   50 am   BACKBONE|DICT|INTERRES
    98   49  112 1    
    99   50   51 2    
   100   50   52 1    
   101   52   53 1    
   102   52   54 1    
   103   52  113 1    
   104   53  114 1    
   105   53  115 1    
   106   53  116 1    
   107   54   55 am   BACKBONE|DICT|INTERRES
   108   54  117 1    
   109   55   56 2    
   110   55   57 1    
   111   57   58 1    
   112   57   59 1    
   113   57  118 1    
   114   58  119 1    
   115   58  120 1    
   116   58  121 1    
   117   59   60 am   BACKBONE|DICT|INTERRES
   118   59  122 1    
   119   60   61 2    
   120   60   62 1    
   121   62   63 1    
   122   62   64 1    
   123   62  123 1    
   124   63  124 1    
   125   63  125 1    
   126   63  126 1    
   127   64   65 am   BACKBONE|DICT|INTERRES
   128   64  127 1    
   129   65   66 2    
@<TRIPOS>SUBSTRUCTURE
     1 UNK         1 GROUP             0       ****    0 ROOT    
