@<TRIPOS>MOLECULE
3R134
127   129    1
SMALL
USER_CHARGES


@<TRIPOS>ATOM
      1 CA         36.9956  -48.2169  -54.7038 C.3       0 UNK        -0.1968 
      2 C          35.6925  -47.5729  -54.2585 C.2       0 UNK         0.4852 
      3 O          34.6418  -48.2137  -54.3303 O.2       0 UNK        -0.5359 
      4 N          35.7512  -46.3217  -53.7813 N.am      1 UNK        -0.4300 
      5 CA         34.6299  -45.4726  -53.3423 C.3       1 UNK         0.0863 
      6 C6         35.0540  -43.9822  -53.3101 C.3       11 UNK        -0.0953 
      7 S7         35.3420  -43.3481  -54.9964 S.3       11 UNK        -0.2369 
      8 C8         33.9766  -42.1578  -55.1923 C.3       11 UNK         0.0226 
      9 C9         32.6033  -42.8176  -55.1564 C.ar      11 UNK        -0.0699 
     10 C10        31.8404  -42.7916  -53.9843 C.ar      11 UNK        -0.0804 
     11 C11        30.5598  -43.3510  -53.9453 C.ar      11 UNK        -0.0871 
     12 C12        30.0330  -43.9105  -55.1153 C.ar      11 UNK        -0.1008 
     13 C13        30.7925  -43.9687  -56.2879 C.ar      11 UNK        -0.0735 
     14 C14        32.0793  -43.4231  -56.3022 C.ar      11 UNK        -0.0945 
     15 C15        30.2280  -44.6451  -57.5290 C.3       11 UNK         0.0169 
     16 S16        29.6706  -43.4714  -58.8083 S.3       11 UNK        -0.2669 
     17 C17        28.4009  -42.4618  -57.9595 C.3       11 UNK        -0.0850 
     18 CA         26.9528  -43.0131  -58.0522 C.3       10 UNK         0.0855 
     19 C          26.3654  -42.9646  -59.4948 C.2       10 UNK         0.5543 
     20 N          25.8304  -44.0509  -60.0415 N.am      10 UNK        -0.7343 
     21 O          26.3773  -41.9100  -60.1250 O.2       10 UNK        -0.5027 
     22 N          26.8393  -44.3176  -57.3886 N.am      10 UNK        -0.4495 
     23 C          25.7509  -44.7764  -56.7619 C.2       10 UNK         0.4903 
     24 O          24.7203  -44.1200  -56.6052 O.2       10 UNK        -0.4860 
     25 CA         25.8462  -46.2156  -56.2183 C.3       9 UNK         0.0227 
     26 CB         24.4692  -46.8275  -55.8886 C.3       9 UNK        -0.1964 
     27 N          26.6184  -47.1276  -57.0753 N.am      9 UNK        -0.4231 
     28 C          26.3825  -47.4172  -58.3649 C.2       9 UNK         0.5014 
     29 O          25.5047  -46.8818  -59.0428 O.2       9 UNK        -0.5270 
     30 CA         27.2886  -48.4693  -59.0177 C.3       8 UNK         0.0284 
     31 CB         28.5183  -47.7963  -59.6522 C.3       8 UNK        -0.1977 
     32 N          27.7260  -49.4875  -58.0577 N.am      8 UNK        -0.4342 
     33 C          27.1230  -50.6692  -57.8768 C.2       8 UNK         0.5039 
     34 O          26.1160  -51.0263  -58.4901 O.2       8 UNK        -0.5547 
     35 CA         27.7694  -51.6353  -56.8702 C.3       7 UNK         0.0281 
     36 CB         29.1166  -52.1573  -57.3980 C.3       7 UNK        -0.1963 
     37 N          27.9533  -51.0689  -55.5321 N.am      7 UNK        -0.4444 
     38 C          26.9632  -50.8603  -54.6516 C.2       7 UNK         0.5104 
     39 O          25.7701  -51.0233  -54.9070 O.2       7 UNK        -0.5100 
     40 CA         27.3752  -50.4179  -53.2368 C.3       6 UNK         0.0396 
     41 CB         27.9695  -51.5915  -52.4405 C.3       6 UNK        -0.1801 
     42 N          28.3374  -49.3189  -53.2887 N.am      6 UNK        -0.4747 
     43 C          27.9931  -48.0262  -53.3689 C.2       6 UNK         0.5012 
     44 O          26.8345  -47.6298  -53.2488 O.2       6 UNK        -0.5003 
     45 CA         29.1082  -47.0042  -53.6845 C.3       5 UNK         0.0782 
     46 C46        29.5049  -46.1364  -52.4610 C.3       11 UNK        -0.0868 
     47 S47        28.5160  -44.6027  -52.3942 S.3       11 UNK        -0.2515 
     48 C48        29.7746  -43.2955  -52.6319 C.3       11 UNK         0.0199 
     49 N          30.2729  -47.6148  -54.3280 N.am      5 UNK        -0.4607 
     50 C          30.2862  -48.0484  -55.5945 C.2       4 UNK         0.5031 
     51 O          29.3266  -47.9406  -56.3560 O.2       4 UNK        -0.5119 
     52 CA         31.5550  -48.7660  -56.0791 C.3       4 UNK         0.0263 
     53 CB         32.5168  -47.7662  -56.7379 C.3       4 UNK        -0.1967 
     54 N          32.2435  -49.4797  -55.0009 N.am      4 UNK        -0.4237 
     55 C          31.7327  -50.5316  -54.3435 C.2       3 UNK         0.4908 
     56 O          30.6455  -51.0398  -54.6162 O.2       3 UNK        -0.5102 
     57 CA         32.5278  -51.0511  -53.1356 C.3       3 UNK         0.0241 
     58 CB         33.7193  -51.9059  -53.5952 C.3       3 UNK        -0.1971 
     59 N          33.0025  -49.9611  -52.2794 N.am      3 UNK        -0.4139 
     60 C          32.2098  -49.1336  -51.5799 C.2       2 UNK         0.5016 
     61 O          30.9860  -49.2398  -51.5189 O.2       2 UNK        -0.5319 
     62 CA         32.8946  -47.9277  -50.9313 C.3       2 UNK         0.0286 
     63 CB         33.8163  -48.3362  -49.7683 C.3       2 UNK        -0.1963 
     64 N          33.6410  -47.2333  -51.9733 N.am      2 UNK        -0.4790 
     65 C          33.9817  -45.9455  -52.0167 C.2       1 UNK         0.5024 
     66 O          33.7863  -45.1602  -51.0880 O.2       1 UNK        -0.4888 
     67 H67        36.9305  -48.5007  -55.7537 H         1 UNK         0.0892 
     68 H68        37.1876  -49.1158  -54.1188 H         1 UNK         0.0892 
     69 H69        37.8453  -47.5448  -54.5852 H         1 UNK         0.0892 
     70 H70        36.6540  -45.8714  -53.7358 H         1 UNK         0.3107 
     71 H71        33.8385  -45.5684  -54.0896 H         1 UNK         0.0773 
     72 H72        35.9659  -43.8540  -52.7245 H         1 UNK         0.0680 
     73 H73        34.3047  -43.3582  -52.8238 H         1 UNK         0.0680 
     74 H74        34.0547  -41.3927  -54.4182 H         1 UNK         0.0650 
     75 H75        34.1026  -41.6374  -56.1428 H         1 UNK         0.0650 
     76 H76        32.2418  -42.3221  -53.0968 H         1 UNK         0.1397 
     77 H77        29.0264  -44.2990  -55.1207 H         1 UNK         0.1363 
     78 H78        32.6665  -43.4560  -57.2098 H         1 UNK         0.1355 
     79 H79        29.4127  -45.3168  -57.2621 H         1 UNK         0.0707 
     80 H80        30.9987  -45.2782  -57.9682 H         1 UNK         0.0707 
     81 H81        28.4404  -41.4575  -58.3852 H         1 UNK         0.1034 
     82 H82        28.6758  -42.3255  -56.9141 H         1 UNK         0.1034 
     83 H83        26.3347  -42.3132  -57.4866 H         1 UNK         0.0482 
     84 H84        25.7785  -44.9275  -59.5351 H         1 UNK         0.3460 
     85 H85        25.4504  -43.9920  -60.9725 H         1 UNK         0.3460 
     86 H86        27.6193  -44.9417  -57.5204 H         1 UNK         0.2989 
     87 H87        26.3993  -46.1284  -55.2852 H         1 UNK         0.0559 
     88 H88        24.5742  -47.8252  -55.4614 H         1 UNK         0.0848 
     89 H89        23.8384  -46.9047  -56.7748 H         1 UNK         0.0848 
     90 H90        23.9341  -46.2204  -55.1574 H         1 UNK         0.0848 
     91 H91        27.4258  -47.5690  -56.6455 H         1 UNK         0.3144 
     92 H92        26.7184  -48.9416  -59.8206 H         1 UNK         0.0727 
     93 H93        29.1418  -48.5240  -60.1716 H         1 UNK         0.0790 
     94 H94        29.1403  -47.2926  -58.9124 H         1 UNK         0.0790 
     95 H95        28.2169  -47.0469  -60.3856 H         1 UNK         0.0790 
     96 H96        28.5084  -49.2323  -57.4620 H         1 UNK         0.3215 
     97 H97        27.1021  -52.4950  -56.7746 H         1 UNK         0.0863 
     98 H98        29.5275  -52.9243  -56.7412 H         1 UNK         0.0808 
     99 H99        29.8577  -51.3626  -57.4829 H         1 UNK         0.0808 
    100 H100       29.0025  -52.6047  -58.3864 H         1 UNK         0.0808 
    101 H101       28.9144  -50.9570  -55.2140 H         1 UNK         0.3118 
    102 H102       26.4756  -50.0905  -52.7111 H         1 UNK         0.0546 
    103 H103       27.2517  -52.4088  -52.3601 H         1 UNK         0.0828 
    104 H104       28.2300  -51.2876  -51.4265 H         1 UNK         0.0828 
    105 H105       28.8685  -51.9942  -52.9070 H         1 UNK         0.0828 
    106 H106       29.3152  -49.5693  -53.3627 H         1 UNK         0.3005 
    107 H107       28.6686  -46.3510  -54.4375 H         1 UNK         0.1257 
    108 H108       30.5593  -45.8592  -52.5096 H         1 UNK         0.0775 
    109 H109       29.3923  -46.6828  -51.5224 H         1 UNK         0.0775 
    110 H110       29.2776  -42.3266  -52.5714 H         1 UNK         0.0840 
    111 H111       30.4646  -43.3388  -51.7873 H         1 UNK         0.0840 
    112 H112       31.0834  -47.7715  -53.7496 H         1 UNK         0.2987 
    113 H113       31.2590  -49.5000  -56.8304 H         1 UNK         0.0785 
    114 H114       32.7798  -46.9490  -56.0646 H         1 UNK         0.0798 
    115 H115       32.0674  -47.3281  -57.6289 H         1 UNK         0.0798 
    116 H116       33.4415  -48.2513  -57.0509 H         1 UNK         0.0798 
    117 H117       33.1567  -49.1153  -54.7292 H         1 UNK         0.3079 
    118 H118       31.8598  -51.6802  -52.5432 H         1 UNK         0.0794 
    119 H119       34.4418  -51.3218  -54.1674 H         1 UNK         0.0786 
    120 H120       33.3870  -52.7279  -54.2309 H         1 UNK         0.0786 
    121 H121       34.2417  -52.3463  -52.7457 H         1 UNK         0.0786 
    122 H122       33.9987  -49.7952  -52.2771 H         1 UNK         0.3032 
    123 H123       32.1149  -47.2644  -50.5489 H         1 UNK         0.1094 
    124 H124       34.6454  -48.9607  -50.1023 H         1 UNK         0.0794 
    125 H125       34.2385  -47.4606  -49.2749 H         1 UNK         0.0794 
    126 H126       33.2646  -48.8977  -49.0131 H         1 UNK         0.0794 
    127 H127       33.8674  -47.7735  -52.8077 H         1 UNK         0.3016 
@<TRIPOS>BOND
     1    1    2 1    
     2    1   67 1    
     3    1   68 1    
     4    1   69 1    
     5    2    3 2    
     6    2    4 am   BACKBONE|DICT|INTERRES
     7    4    5 1    
     8    4   70 1    
     9    5    6 1    
    10    5   65 1    
    11    5   71 1    
    12    6    7 1    
    13    6   72 1    
    14    6   73 1    
    15    7    8 1    
    16    8    9 1    
    17    8   74 1    
    18    8   75 1    
    19    9   10 ar   
    20    9   14 ar   
    21   10   11 ar   
    22   10   76 1    
    23   11   12 ar   
    24   11   48 1    
    25   12   13 ar   
    26   12   77 1    
    27   13   14 ar   
    28   13   15 1    
    29   14   78 1    
    30   15   16 1    
    31   15   79 1    
    32   15   80 1    
    33   16   17 1    
    34   17   18 1    
    35   17   81 1    
    36   17   82 1    
    37   18   19 1    
    38   18   22 1    
    39   18   83 1    
    40   19   20 am   BACKBONE|DICT|INTERRES
    41   19   21 2    
    42   20   84 1    
    43   20   85 1    
    44   22   23 am   BACKBONE|DICT|INTERRES
    45   22   86 1    
    46   23   24 2    
    47   23   25 1    
    48   25   26 1    
    49   25   27 1    
    50   25   87 1    
    51   26   88 1    
    52   26   89 1    
    53   26   90 1    
    54   27   28 am   BACKBONE|DICT|INTERRES
    55   27   91 1    
    56   28   29 2    
    57   28   30 1    
    58   30   31 1    
    59   30   32 1    
    60   30   92 1    
    61   31   93 1    
    62   31   94 1    
    63   31   95 1    
    64   32   33 am   BACKBONE|DICT|INTERRES
    65   32   96 1    
    66   33   34 2    
    67   33   35 1    
    68   35   36 1    
    69   35   37 1    
    70   35   97 1    
    71   36   98 1    
    72   36   99 1    
    73   36  100 1    
    74   37   38 am   BACKBONE|DICT|INTERRES
    75   37  101 1    
    76   38   39 2    
    77   38   40 1    
    78   40   41 1    
    79   40   42 1    
    80   40  102 1    
    81   41  103 1    
    82   41  104 1    
    83   41  105 1    
    84   42   43 am   BACKBONE|DICT|INTERRES
    85   42  106 1    
    86   43   44 2    
    87   43   45 1    
    88   45   46 1    
    89   45   49 1    
    90   45  107 1    
    91   46   47 1    
    92   46  108 1    
    93   46  109 1    
    94   47   48 1    
    95   48  110 1    
    96   48  111 1    
    97   49   50 am   BACKBONE|DICT|INTERRES
    98   49  112 1    
    99   50   51 2    
   100   50   52 1    
   101   52   53 1    
   102   52   54 1    
   103   52  113 1    
   104   53  114 1    
   105   53  115 1    
   106   53  116 1    
   107   54   55 am   BACKBONE|DICT|INTERRES
   108   54  117 1    
   109   55   56 2    
   110   55   57 1    
   111   57   58 1    
   112   57   59 1    
   113   57  118 1    
   114   58  119 1    
   115   58  120 1    
   116   58  121 1    
   117   59   60 am   BACKBONE|DICT|INTERRES
   118   59  122 1    
   119   60   61 2    
   120   60   62 1    
   121   62   63 1    
   122   62   64 1    
   123   62  123 1    
   124   63  124 1    
   125   63  125 1    
   126   63  126 1    
   127   64   65 am   BACKBONE|DICT|INTERRES
   128   64  127 1    
   129   65   66 2    
@<TRIPOS>SUBSTRUCTURE
     1 UNK         1 GROUP             0       ****    0 ROOT    
