@<TRIPOS>MOLECULE
3R134
127   129    1
SMALL
USER_CHARGES


@<TRIPOS>ATOM
      1 CA         39.8681  -43.8529  -54.5145 C.3       0 UNK        -0.1968 
      2 C          38.3541  -43.7266  -54.6029 C.2       0 UNK         0.4852 
      3 O          37.8460  -42.6346  -54.8621 O.2       0 UNK        -0.5359 
      4 N          37.6337  -44.8327  -54.3927 N.am      1 UNK        -0.4300 
      5 CA         36.1781  -44.9353  -54.4700 C.3       1 UNK         0.0863 
      6 C6         35.4739  -44.3605  -53.2072 C.3       11 UNK        -0.0953 
      7 S7         33.8299  -43.6606  -53.5781 S.3       11 UNK        -0.2369 
      8 C8         32.7394  -44.8244  -52.6947 C.3       11 UNK         0.0226 
      9 C9         31.2553  -44.5531  -52.9190 C.ar      11 UNK        -0.0699 
     10 C10        30.3739  -44.6126  -51.8361 C.ar      11 UNK        -0.0804 
     11 C11        29.0005  -44.4355  -52.0242 C.ar      11 UNK        -0.0871 
     12 C12        28.5075  -44.1711  -53.3050 C.ar      11 UNK        -0.1008 
     13 C13        29.3758  -44.1057  -54.3984 C.ar      11 UNK        -0.0735 
     14 C14        30.7460  -44.3063  -54.1999 C.ar      11 UNK        -0.0945 
     15 C15        28.8325  -43.8795  -55.8018 C.3       11 UNK         0.0169 
     16 S16        27.8785  -42.3344  -55.9535 S.3       11 UNK        -0.2669 
     17 C17        27.6977  -42.2122  -57.7680 C.3       11 UNK        -0.0850 
     18 CA         26.3660  -42.7930  -58.3163 C.3       10 UNK         0.0855 
     19 C          26.2661  -42.5324  -59.8495 C.2       10 UNK         0.5543 
     20 N          26.4160  -43.5354  -60.7085 N.am      10 UNK        -0.7343 
     21 O          26.0517  -41.3957  -60.2629 O.2       10 UNK        -0.5027 
     22 N          26.1928  -44.2017  -57.9341 N.am      10 UNK        -0.4495 
     23 C          25.0763  -44.9250  -58.0839 C.2       10 UNK         0.4903 
     24 O          23.9955  -44.4470  -58.4313 O.2       10 UNK        -0.4860 
     25 CA         25.1906  -46.4391  -57.8024 C.3       9 UNK         0.0227 
     26 CB         24.2660  -47.2763  -58.7102 C.3       9 UNK        -0.1964 
     27 N          26.5652  -46.9629  -57.8477 N.am      9 UNK        -0.4231 
     28 C          27.4191  -46.9397  -58.8853 C.2       9 UNK         0.5014 
     29 O          27.1607  -46.4219  -59.9730 O.2       9 UNK        -0.5270 
     30 CA         28.8075  -47.5618  -58.6677 C.3       8 UNK         0.0284 
     31 CB         29.7838  -46.5351  -58.0733 C.3       8 UNK        -0.1977 
     32 N          28.7548  -48.7417  -57.8029 N.am      8 UNK        -0.4342 
     33 C          28.6378  -49.9997  -58.2489 C.2       8 UNK         0.5039 
     34 O          28.6458  -50.3153  -59.4395 O.2       8 UNK        -0.5547 
     35 CA         28.4590  -51.0924  -57.1819 C.3       7 UNK         0.0281 
     36 CB         29.8204  -51.5590  -56.6395 C.3       7 UNK        -0.1963 
     37 N          27.6012  -50.6468  -56.0798 N.am      7 UNK        -0.4444 
     38 C          26.2773  -50.4571  -56.1979 C.2       7 UNK         0.5104 
     39 O          25.6453  -50.6979  -57.2266 O.2       7 UNK        -0.5100 
     40 CA         25.5137  -49.9104  -54.9775 C.3       6 UNK         0.0396 
     41 CB         24.6890  -51.0282  -54.3191 C.3       6 UNK        -0.1801 
     42 N          26.3597  -49.2834  -53.9595 N.am      6 UNK        -0.4747 
     43 C          27.0287  -48.1311  -54.1071 C.2       6 UNK         0.5012 
     44 O          27.0629  -47.4843  -55.1540 O.2       6 UNK        -0.5003 
     45 CA         27.8466  -47.6664  -52.8881 C.3       5 UNK         0.0782 
     46 C46        26.9210  -46.9656  -51.8600 C.3       11 UNK        -0.0868 
     47 S47        27.8135  -46.3274  -50.4016 S.3       11 UNK        -0.2515 
     48 C48        28.0496  -44.5764  -50.8467 C.3       11 UNK         0.0199 
     49 N          28.6261  -48.7628  -52.2981 N.am      5 UNK        -0.4607 
     50 C          29.5612  -49.4603  -52.9537 C.2       4 UNK         0.5031 
     51 O          29.8355  -49.2930  -54.1454 O.2       4 UNK        -0.5119 
     52 CA         30.2849  -50.5545  -52.1674 C.3       4 UNK         0.0263 
     53 CB         29.4856  -51.8695  -52.1912 C.3       4 UNK        -0.1967 
     54 N          31.5835  -50.7469  -52.7979 N.am      4 UNK        -0.4237 
     55 C          32.6962  -51.1880  -52.2040 C.2       3 UNK         0.4908 
     56 O          32.7400  -51.5892  -51.0402 O.2       3 UNK        -0.5102 
     57 CA         33.9860  -51.1766  -53.0471 C.3       3 UNK         0.0241 
     58 CB         34.2493  -52.5712  -53.6390 C.3       3 UNK        -0.1971 
     59 N          33.9834  -50.1855  -54.1315 N.am      3 UNK        -0.4139 
     60 C          33.9978  -48.8571  -53.9522 C.2       2 UNK         0.5016 
     61 O          33.9982  -48.3138  -52.8448 O.2       2 UNK        -0.5319 
     62 CA         33.9663  -47.9996  -55.2324 C.3       2 UNK         0.0286 
     63 CB         32.5191  -47.8343  -55.7259 C.3       2 UNK        -0.1963 
     64 N          34.5440  -46.6664  -55.0391 N.am      2 UNK        -0.4790 
     65 C          35.8217  -46.4107  -54.7345 C.2       1 UNK         0.5024 
     66 O          36.6973  -47.2796  -54.6638 O.2       1 UNK        -0.4888 
     67 H67        40.2552  -43.1903  -53.7410 H         1 UNK         0.0892 
     68 H68        40.1792  -44.8699  -54.2760 H         1 UNK         0.0892 
     69 H69        40.3243  -43.5727  -55.4636 H         1 UNK         0.0892 
     70 H70        38.0872  -45.7262  -54.2388 H         1 UNK         0.3107 
     71 H71        35.8652  -44.3713  -55.3519 H         1 UNK         0.0773 
     72 H72        35.4081  -45.1031  -52.4092 H         1 UNK         0.0680 
     73 H73        36.0588  -43.5401  -52.7889 H         1 UNK         0.0680 
     74 H74        32.9797  -44.7746  -51.6315 H         1 UNK         0.0650 
     75 H75        32.9504  -45.8449  -53.0093 H         1 UNK         0.0650 
     76 H76        30.7502  -44.8303  -50.8456 H         1 UNK         0.1397 
     77 H77        27.4451  -44.0402  -53.4597 H         1 UNK         0.1363 
     78 H78        31.4181  -44.2817  -55.0464 H         1 UNK         0.1355 
     79 H79        29.6498  -43.8657  -56.5244 H         1 UNK         0.0707 
     80 H80        28.1921  -44.7227  -56.0599 H         1 UNK         0.0707 
     81 H81        27.7703  -41.1524  -58.0211 H         1 UNK         0.1034 
     82 H82        28.5523  -42.6859  -58.2549 H         1 UNK         0.1034 
     83 H83        25.5468  -42.2374  -57.8560 H         1 UNK         0.0482 
     84 H84        26.6012  -44.4782  -60.3839 H         1 UNK         0.3460 
     85 H85        26.3475  -43.3513  -61.6966 H         1 UNK         0.3460 
     86 H86        27.0259  -44.6851  -57.6419 H         1 UNK         0.2989 
     87 H87        24.8539  -46.5773  -56.7740 H         1 UNK         0.0559 
     88 H88        23.2211  -46.9943  -58.5760 H         1 UNK         0.0848 
     89 H89        24.3443  -48.3394  -58.4817 H         1 UNK         0.0848 
     90 H90        24.5063  -47.1414  -59.7653 H         1 UNK         0.0848 
     91 H91        26.8915  -47.3312  -56.9560 H         1 UNK         0.3144 
     92 H92        29.1871  -47.8412  -59.6531 H         1 UNK         0.0727 
     93 H93        29.6141  -46.3804  -57.0081 H         1 UNK         0.0790 
     94 H94        29.7021  -45.5686  -58.5730 H         1 UNK         0.0790 
     95 H95        30.8122  -46.8704  -58.1997 H         1 UNK         0.0790 
     96 H96        28.7414  -48.5858  -56.8039 H         1 UNK         0.3215 
     97 H97        27.9770  -51.9486  -57.6596 H         1 UNK         0.0863 
     98 H98        29.7046  -52.3218  -55.8695 H         1 UNK         0.0808 
     99 H99        30.3954  -50.7362  -56.2161 H         1 UNK         0.0808 
    100 H100       30.4237  -51.9938  -57.4375 H         1 UNK         0.0808 
    101 H101       28.0560  -50.3992  -55.2112 H         1 UNK         0.3118 
    102 H102       24.8219  -49.1506  -55.3478 H         1 UNK         0.0546 
    103 H103       25.3262  -51.8142  -53.9118 H         1 UNK         0.0828 
    104 H104       24.0172  -51.4957  -55.0406 H         1 UNK         0.0828 
    105 H105       24.0699  -50.6420  -53.5092 H         1 UNK         0.0828 
    106 H106       26.4214  -49.7573  -53.0696 H         1 UNK         0.3005 
    107 H107       28.5685  -46.9378  -53.2613 H         1 UNK         0.1257 
    108 H108       26.1590  -47.6587  -51.4983 H         1 UNK         0.0775 
    109 H109       26.3763  -46.1441  -52.3296 H         1 UNK         0.0775 
    110 H110       27.0839  -44.1170  -51.0639 H         1 UNK         0.0840 
    111 H111       28.4543  -44.0422  -49.9858 H         1 UNK         0.0840 
    112 H112       28.4618  -48.9480  -51.3189 H         1 UNK         0.2987 
    113 H113       30.4245  -50.2174  -51.1380 H         1 UNK         0.0785 
    114 H114       28.5057  -51.7427  -51.7295 H         1 UNK         0.0798 
    115 H115       30.0019  -52.6564  -51.6411 H         1 UNK         0.0798 
    116 H116       29.3252  -52.2253  -53.2098 H         1 UNK         0.0798 
    117 H117       31.6317  -50.3869  -53.7428 H         1 UNK         0.3079 
    118 H118       34.8097  -50.9301  -52.3734 H         1 UNK         0.0794 
    119 H119       35.2038  -52.6067  -54.1647 H         1 UNK         0.0786 
    120 H120       33.4670  -52.8678  -54.3390 H         1 UNK         0.0786 
    121 H121       34.2869  -53.3276  -52.8536 H         1 UNK         0.0786 
    122 H122       33.9786  -50.5509  -55.0732 H         1 UNK         0.3032 
    123 H123       34.5506  -48.5066  -56.0037 H         1 UNK         0.1094 
    124 H124       31.8866  -47.3533  -54.9778 H         1 UNK         0.0794 
    125 H125       32.4828  -47.2329  -56.6331 H         1 UNK         0.0794 
    126 H126       32.0662  -48.7982  -55.9603 H         1 UNK         0.0794 
    127 H127       33.8969  -45.8913  -55.0459 H         1 UNK         0.3016 
@<TRIPOS>BOND
     1    1    2 1    
     2    1   67 1    
     3    1   68 1    
     4    1   69 1    
     5    2    3 2    
     6    2    4 am   BACKBONE|DICT|INTERRES
     7    4    5 1    
     8    4   70 1    
     9    5    6 1    
    10    5   65 1    
    11    5   71 1    
    12    6    7 1    
    13    6   72 1    
    14    6   73 1    
    15    7    8 1    
    16    8    9 1    
    17    8   74 1    
    18    8   75 1    
    19    9   10 ar   
    20    9   14 ar   
    21   10   11 ar   
    22   10   76 1    
    23   11   12 ar   
    24   11   48 1    
    25   12   13 ar   
    26   12   77 1    
    27   13   14 ar   
    28   13   15 1    
    29   14   78 1    
    30   15   16 1    
    31   15   79 1    
    32   15   80 1    
    33   16   17 1    
    34   17   18 1    
    35   17   81 1    
    36   17   82 1    
    37   18   19 1    
    38   18   22 1    
    39   18   83 1    
    40   19   20 am   BACKBONE|DICT|INTERRES
    41   19   21 2    
    42   20   84 1    
    43   20   85 1    
    44   22   23 am   BACKBONE|DICT|INTERRES
    45   22   86 1    
    46   23   24 2    
    47   23   25 1    
    48   25   26 1    
    49   25   27 1    
    50   25   87 1    
    51   26   88 1    
    52   26   89 1    
    53   26   90 1    
    54   27   28 am   BACKBONE|DICT|INTERRES
    55   27   91 1    
    56   28   29 2    
    57   28   30 1    
    58   30   31 1    
    59   30   32 1    
    60   30   92 1    
    61   31   93 1    
    62   31   94 1    
    63   31   95 1    
    64   32   33 am   BACKBONE|DICT|INTERRES
    65   32   96 1    
    66   33   34 2    
    67   33   35 1    
    68   35   36 1    
    69   35   37 1    
    70   35   97 1    
    71   36   98 1    
    72   36   99 1    
    73   36  100 1    
    74   37   38 am   BACKBONE|DICT|INTERRES
    75   37  101 1    
    76   38   39 2    
    77   38   40 1    
    78   40   41 1    
    79   40   42 1    
    80   40  102 1    
    81   41  103 1    
    82   41  104 1    
    83   41  105 1    
    84   42   43 am   BACKBONE|DICT|INTERRES
    85   42  106 1    
    86   43   44 2    
    87   43   45 1    
    88   45   46 1    
    89   45   49 1    
    90   45  107 1    
    91   46   47 1    
    92   46  108 1    
    93   46  109 1    
    94   47   48 1    
    95   48  110 1    
    96   48  111 1    
    97   49   50 am   BACKBONE|DICT|INTERRES
    98   49  112 1    
    99   50   51 2    
   100   50   52 1    
   101   52   53 1    
   102   52   54 1    
   103   52  113 1    
   104   53  114 1    
   105   53  115 1    
   106   53  116 1    
   107   54   55 am   BACKBONE|DICT|INTERRES
   108   54  117 1    
   109   55   56 2    
   110   55   57 1    
   111   57   58 1    
   112   57   59 1    
   113   57  118 1    
   114   58  119 1    
   115   58  120 1    
   116   58  121 1    
   117   59   60 am   BACKBONE|DICT|INTERRES
   118   59  122 1    
   119   60   61 2    
   120   60   62 1    
   121   62   63 1    
   122   62   64 1    
   123   62  123 1    
   124   63  124 1    
   125   63  125 1    
   126   63  126 1    
   127   64   65 am   BACKBONE|DICT|INTERRES
   128   64  127 1    
   129   65   66 2    
@<TRIPOS>SUBSTRUCTURE
     1 UNK         1 GROUP             0       ****    0 ROOT    
