@<TRIPOS>MOLECULE
3R134
127   129    1
SMALL
USER_CHARGES


@<TRIPOS>ATOM
      1 CA         36.6590  -47.0423  -55.9955 C.3       0 UNK        -0.1968 
      2 C          35.3557  -47.0083  -55.2133 C.2       0 UNK         0.4852 
      3 O          34.5094  -47.8842  -55.4049 O.2       0 UNK        -0.5359 
      4 N          35.1959  -46.0150  -54.3244 N.am      1 UNK        -0.4300 
      5 CA         33.9997  -45.7591  -53.5057 C.3       1 UNK         0.0863 
      6 C6         34.1777  -44.5453  -52.5604 C.3       11 UNK        -0.0953 
      7 S7         34.6146  -43.0124  -53.4456 S.3       11 UNK        -0.2369 
      8 C8         33.2689  -41.8869  -52.9498 C.3       11 UNK         0.0226 
      9 C9         31.9462  -42.2174  -53.6289 C.ar      11 UNK        -0.0699 
     10 C10        30.8276  -42.5826  -52.8715 C.ar      11 UNK        -0.0804 
     11 C11        29.6075  -42.8660  -53.4976 C.ar      11 UNK        -0.0871 
     12 C12        29.5104  -42.7462  -54.8866 C.ar      11 UNK        -0.1008 
     13 C13        30.6173  -42.3789  -55.6578 C.ar      11 UNK        -0.0735 
     14 C14        31.8328  -42.1180  -55.0190 C.ar      11 UNK        -0.0945 
     15 C15        30.5051  -42.2252  -57.1719 C.3       11 UNK         0.0169 
     16 S16        29.8874  -43.7308  -57.9939 S.3       11 UNK        -0.2669 
     17 C17        28.0768  -43.4560  -58.0080 C.3       11 UNK        -0.0850 
     18 CA         27.3354  -43.8241  -59.3278 C.3       10 UNK         0.0855 
     19 C          27.8770  -43.1117  -60.6052 C.2       10 UNK         0.5543 
     20 N          27.8987  -43.7551  -61.7653 N.am      10 UNK        -0.7343 
     21 O          28.2295  -41.9355  -60.5559 O.2       10 UNK        -0.5027 
     22 N          27.0381  -45.2646  -59.4242 N.am      10 UNK        -0.4495 
     23 C          27.8757  -46.2726  -59.6998 C.2       10 UNK         0.4903 
     24 O          29.0448  -46.1361  -60.0586 O.2       10 UNK        -0.4860 
     25 CA         27.2873  -47.6811  -59.5167 C.3       9 UNK         0.0227 
     26 CB         28.3109  -48.7980  -59.7949 C.3       9 UNK        -0.1964 
     27 N          26.7916  -47.8301  -58.1493 N.am      9 UNK        -0.4231 
     28 C          25.5311  -47.6408  -57.7399 C.2       9 UNK         0.5014 
     29 O          24.6178  -47.2854  -58.4874 O.2       9 UNK        -0.5270 
     30 CA         25.2677  -47.8764  -56.2383 C.3       8 UNK         0.0284 
     31 CB         23.7681  -47.9733  -55.8865 C.3       8 UNK        -0.1977 
     32 N          26.0155  -49.0315  -55.7256 N.am      8 UNK        -0.4342 
     33 C          25.9058  -50.3134  -56.1075 C.2       8 UNK         0.5039 
     34 O          25.0410  -50.7352  -56.8764 O.2       8 UNK        -0.5547 
     35 CA         26.9666  -51.2953  -55.5774 C.3       7 UNK         0.0281 
     36 CB         27.9798  -51.6197  -56.6885 C.3       7 UNK        -0.1963 
     37 N          27.6934  -50.8003  -54.4050 N.am      7 UNK        -0.4444 
     38 C          27.1902  -50.7390  -53.1646 C.2       7 UNK         0.5104 
     39 O          26.0627  -51.1294  -52.8609 O.2       7 UNK        -0.5100 
     40 CA         28.0895  -50.1097  -52.0871 C.3       6 UNK         0.0396 
     41 CB         29.1370  -51.1182  -51.5883 C.3       6 UNK        -0.1801 
     42 N          28.7614  -48.8957  -52.5561 N.am      6 UNK        -0.4747 
     43 C          28.1469  -47.7342  -52.8311 C.2       6 UNK         0.5012 
     44 O          26.9355  -47.5542  -52.7084 O.2       6 UNK        -0.5003 
     45 CA         29.0334  -46.6007  -53.3821 C.3       5 UNK         0.0782 
     46 C46        29.7050  -45.7844  -52.2500 C.3       11 UNK        -0.0868 
     47 S47        28.6394  -44.5540  -51.4278 S.3       11 UNK        -0.2515 
     48 C48        28.3685  -43.2686  -52.6996 C.3       11 UNK         0.0199 
     49 N          30.0383  -47.1261  -54.3109 N.am      5 UNK        -0.4607 
     50 C          29.7684  -47.5797  -55.5407 C.2       4 UNK         0.5031 
     51 O          28.6380  -47.6033  -56.0260 O.2       4 UNK        -0.5119 
     52 CA         30.9426  -48.1301  -56.3624 C.3       4 UNK         0.0263 
     53 CB         31.6790  -46.9920  -57.0830 C.3       4 UNK        -0.1967 
     54 N          31.9010  -48.9259  -55.5919 N.am      4 UNK        -0.4237 
     55 C          31.6161  -50.0953  -55.0008 C.2       3 UNK         0.4908 
     56 O          30.4780  -50.5516  -54.9020 O.2       3 UNK        -0.5102 
     57 CA         32.7954  -50.8932  -54.4308 C.3       3 UNK         0.0241 
     58 CB         33.6921  -51.4291  -55.5598 C.3       3 UNK        -0.1971 
     59 N          33.5856  -50.0594  -53.5306 N.am      3 UNK        -0.4139 
     60 C          33.4883  -50.0814  -52.1945 C.2       2 UNK         0.5016 
     61 O          32.8056  -50.8914  -51.5664 O.2       2 UNK        -0.5319 
     62 CA         34.2684  -49.0031  -51.4169 C.3       2 UNK         0.0286 
     63 CB         35.6137  -49.5621  -50.9267 C.3       2 UNK        -0.1963 
     64 N          34.5075  -47.7668  -52.1713 N.am      2 UNK        -0.4790 
     65 C          33.5478  -46.9851  -52.6891 C.2       1 UNK         0.5024 
     66 O          32.3478  -47.2290  -52.5885 O.2       1 UNK        -0.4888 
     67 H67        37.3197  -46.2186  -55.7256 H         1 UNK         0.0892 
     68 H68        37.1850  -47.9773  -55.8052 H         1 UNK         0.0892 
     69 H69        36.4541  -46.9777  -57.0637 H         1 UNK         0.0892 
     70 H70        35.9291  -45.3270  -54.2249 H         1 UNK         0.3107 
     71 H71        33.1896  -45.5268  -54.2004 H         1 UNK         0.0773 
     72 H72        34.9620  -44.7408  -51.8265 H         1 UNK         0.0680 
     73 H73        33.2635  -44.3757  -51.9877 H         1 UNK         0.0680 
     74 H74        33.1694  -41.8997  -51.8633 H         1 UNK         0.0650 
     75 H75        33.5530  -40.8682  -53.2171 H         1 UNK         0.0650 
     76 H76        30.9046  -42.6526  -51.7951 H         1 UNK         0.1397 
     77 H77        28.5638  -42.9350  -55.3689 H         1 UNK         0.1363 
     78 H78        32.6959  -41.8246  -55.6010 H         1 UNK         0.1355 
     79 H79        29.8723  -41.3694  -57.4090 H         1 UNK         0.0707 
     80 H80        31.4834  -41.9985  -57.5983 H         1 UNK         0.0707 
     81 H81        27.8745  -42.4094  -57.7762 H         1 UNK         0.1034 
     82 H82        27.6440  -44.0222  -57.1823 H         1 UNK         0.1034 
     83 H83        26.3402  -43.3900  -59.2235 H         1 UNK         0.0482 
     84 H84        28.2322  -43.2813  -62.5897 H         1 UNK         0.3460 
     85 H85        27.6301  -44.7249  -61.8098 H         1 UNK         0.3460 
     86 H86        26.0876  -45.5185  -59.1895 H         1 UNK         0.2989 
     87 H87        26.4660  -47.7939  -60.2273 H         1 UNK         0.0559 
     88 H88        29.1774  -48.7251  -59.1373 H         1 UNK         0.0848 
     89 H89        28.6753  -48.7469  -60.8216 H         1 UNK         0.0848 
     90 H90        27.8680  -49.7846  -59.6570 H         1 UNK         0.0848 
     91 H91        27.4970  -47.9718  -57.4280 H         1 UNK         0.3144 
     92 H92        25.6707  -47.0045  -55.7206 H         1 UNK         0.0727 
     93 H93        23.2759  -48.7855  -56.4221 H         1 UNK         0.0790 
     94 H94        23.2467  -47.0515  -56.1470 H         1 UNK         0.0790 
     95 H95        23.6222  -48.1375  -54.8188 H         1 UNK         0.0790 
     96 H96        26.7917  -48.8021  -55.1187 H         1 UNK         0.3215 
     97 H97        26.4516  -52.2178  -55.3006 H         1 UNK         0.0863 
     98 H98        28.5283  -50.7310  -57.0041 H         1 UNK         0.0808 
     99 H99        27.4805  -52.0252  -57.5695 H         1 UNK         0.0808 
    100 H100       28.7074  -52.3614  -56.3583 H         1 UNK         0.0808 
    101 H101       28.6650  -50.5299  -54.5529 H         1 UNK         0.3118 
    102 H102       27.4551  -49.8363  -51.2413 H         1 UNK         0.0546 
    103 H103       29.7314  -50.7040  -50.7737 H         1 UNK         0.0828 
    104 H104       29.8241  -51.4194  -52.3799 H         1 UNK         0.0828 
    105 H105       28.6583  -52.0230  -51.2115 H         1 UNK         0.0828 
    106 H106       29.7558  -48.9609  -52.7236 H         1 UNK         0.3005 
    107 H107       28.3879  -45.9318  -53.9554 H         1 UNK         0.1257 
    108 H108       30.5758  -45.2577  -52.6388 H         1 UNK         0.0775 
    109 H109       30.1018  -46.4468  -51.4783 H         1 UNK         0.0775 
    110 H110       27.5833  -43.6234  -53.3690 H         1 UNK         0.0840 
    111 H111       27.9666  -42.3796  -52.2120 H         1 UNK         0.0840 
    112 H112       30.9853  -47.1868  -53.9498 H         1 UNK         0.2987 
    113 H113       30.5221  -48.7905  -57.1229 H         1 UNK         0.0785 
    114 H114       32.4962  -47.3712  -57.6966 H         1 UNK         0.0798 
    115 H115       31.0006  -46.4558  -57.7474 H         1 UNK         0.0798 
    116 H116       32.0945  -46.2675  -56.3815 H         1 UNK         0.0798 
    117 H117       32.8664  -48.5980  -55.5955 H         1 UNK         0.3079 
    118 H118       32.3870  -51.7522  -53.8938 H         1 UNK         0.0794 
    119 H119       34.4890  -52.0582  -55.1629 H         1 UNK         0.0786 
    120 H120       34.1575  -50.6249  -56.1313 H         1 UNK         0.0786 
    121 H121       33.1170  -52.0377  -56.2591 H         1 UNK         0.0786 
    122 H122       34.1362  -49.3252  -53.9625 H         1 UNK         0.3032 
    123 H123       33.6646  -48.7425  -50.5446 H         1 UNK         0.1094 
    124 H124       36.2733  -49.8140  -51.7581 H         1 UNK         0.0794 
    125 H125       36.1331  -48.8470  -50.2884 H         1 UNK         0.0794 
    126 H126       35.4683  -50.4702  -50.3396 H         1 UNK         0.0794 
    127 H127       35.4707  -47.5017  -52.3201 H         1 UNK         0.3016 
@<TRIPOS>BOND
     1    1    2 1    
     2    1   67 1    
     3    1   68 1    
     4    1   69 1    
     5    2    3 2    
     6    2    4 am   BACKBONE|DICT|INTERRES
     7    4    5 1    
     8    4   70 1    
     9    5    6 1    
    10    5   65 1    
    11    5   71 1    
    12    6    7 1    
    13    6   72 1    
    14    6   73 1    
    15    7    8 1    
    16    8    9 1    
    17    8   74 1    
    18    8   75 1    
    19    9   10 ar   
    20    9   14 ar   
    21   10   11 ar   
    22   10   76 1    
    23   11   12 ar   
    24   11   48 1    
    25   12   13 ar   
    26   12   77 1    
    27   13   14 ar   
    28   13   15 1    
    29   14   78 1    
    30   15   16 1    
    31   15   79 1    
    32   15   80 1    
    33   16   17 1    
    34   17   18 1    
    35   17   81 1    
    36   17   82 1    
    37   18   19 1    
    38   18   22 1    
    39   18   83 1    
    40   19   20 am   BACKBONE|DICT|INTERRES
    41   19   21 2    
    42   20   84 1    
    43   20   85 1    
    44   22   23 am   BACKBONE|DICT|INTERRES
    45   22   86 1    
    46   23   24 2    
    47   23   25 1    
    48   25   26 1    
    49   25   27 1    
    50   25   87 1    
    51   26   88 1    
    52   26   89 1    
    53   26   90 1    
    54   27   28 am   BACKBONE|DICT|INTERRES
    55   27   91 1    
    56   28   29 2    
    57   28   30 1    
    58   30   31 1    
    59   30   32 1    
    60   30   92 1    
    61   31   93 1    
    62   31   94 1    
    63   31   95 1    
    64   32   33 am   BACKBONE|DICT|INTERRES
    65   32   96 1    
    66   33   34 2    
    67   33   35 1    
    68   35   36 1    
    69   35   37 1    
    70   35   97 1    
    71   36   98 1    
    72   36   99 1    
    73   36  100 1    
    74   37   38 am   BACKBONE|DICT|INTERRES
    75   37  101 1    
    76   38   39 2    
    77   38   40 1    
    78   40   41 1    
    79   40   42 1    
    80   40  102 1    
    81   41  103 1    
    82   41  104 1    
    83   41  105 1    
    84   42   43 am   BACKBONE|DICT|INTERRES
    85   42  106 1    
    86   43   44 2    
    87   43   45 1    
    88   45   46 1    
    89   45   49 1    
    90   45  107 1    
    91   46   47 1    
    92   46  108 1    
    93   46  109 1    
    94   47   48 1    
    95   48  110 1    
    96   48  111 1    
    97   49   50 am   BACKBONE|DICT|INTERRES
    98   49  112 1    
    99   50   51 2    
   100   50   52 1    
   101   52   53 1    
   102   52   54 1    
   103   52  113 1    
   104   53  114 1    
   105   53  115 1    
   106   53  116 1    
   107   54   55 am   BACKBONE|DICT|INTERRES
   108   54  117 1    
   109   55   56 2    
   110   55   57 1    
   111   57   58 1    
   112   57   59 1    
   113   57  118 1    
   114   58  119 1    
   115   58  120 1    
   116   58  121 1    
   117   59   60 am   BACKBONE|DICT|INTERRES
   118   59  122 1    
   119   60   61 2    
   120   60   62 1    
   121   62   63 1    
   122   62   64 1    
   123   62  123 1    
   124   63  124 1    
   125   63  125 1    
   126   63  126 1    
   127   64   65 am   BACKBONE|DICT|INTERRES
   128   64  127 1    
   129   65   66 2    
@<TRIPOS>SUBSTRUCTURE
     1 UNK         1 GROUP             0       ****    0 ROOT    
