@<TRIPOS>MOLECULE
3R134
127   129    1
SMALL
USER_CHARGES


@<TRIPOS>ATOM
      1 CA         27.5860  -43.9192  -50.4940 C.3       0 UNK        -0.1968 
      2 C          29.0503  -43.9226  -50.0802 C.2       0 UNK         0.4852 
      3 O          29.3882  -43.3408  -49.0476 O.2       0 UNK        -0.5359 
      4 N          29.9112  -44.5774  -50.8657 N.am      1 UNK        -0.4300 
      5 CA         31.3272  -44.8065  -50.5708 C.3       1 UNK         0.0863 
      6 C6         32.2620  -44.0741  -51.5742 C.3       11 UNK        -0.0953 
      7 S7         32.0873  -44.6167  -53.3060 S.3       11 UNK        -0.2369 
      8 C8         32.9254  -43.2727  -54.1998 C.3       11 UNK         0.0226 
      9 C9         32.7778  -43.4834  -55.6976 C.ar      11 UNK        -0.0699 
     10 C10        33.7242  -44.2315  -56.4049 C.ar      11 UNK        -0.0804 
     11 C11        33.5320  -44.5158  -57.7602 C.ar      11 UNK        -0.0871 
     12 C12        32.3930  -44.0315  -58.4100 C.ar      11 UNK        -0.1008 
     13 C13        31.4392  -43.2879  -57.7110 C.ar      11 UNK        -0.0735 
     14 C14        31.6541  -42.9871  -56.3642 C.ar      11 UNK        -0.0945 
     15 C15        30.1527  -42.8656  -58.4010 C.3       11 UNK         0.0169 
     16 S16        28.8413  -44.1065  -58.1318 S.3       11 UNK        -0.2669 
     17 C17        27.9191  -43.4058  -56.7180 C.3       11 UNK        -0.0850 
     18 CA         28.2936  -44.0047  -55.3354 C.3       10 UNK         0.0855 
     19 C          27.5000  -43.2683  -54.2215 C.2       10 UNK         0.5543 
     20 N          28.1149  -42.2974  -53.5595 N.am      10 UNK        -0.7343 
     21 O          26.3186  -43.5253  -54.0025 O.2       10 UNK        -0.5027 
     22 N          28.1335  -45.4653  -55.3064 N.am      10 UNK        -0.4495 
     23 C          28.4216  -46.2596  -54.2650 C.2       10 UNK         0.4903 
     24 O          28.8553  -45.8515  -53.1873 O.2       10 UNK        -0.4860 
     25 CA         28.1745  -47.7669  -54.4766 C.3       9 UNK         0.0227 
     26 CB         28.3038  -48.5932  -53.1806 C.3       9 UNK        -0.1964 
     27 N          26.9019  -48.0447  -55.1558 N.am      9 UNK        -0.4231 
     28 C          25.6674  -47.6931  -54.7557 C.2       9 UNK         0.5014 
     29 O          25.4222  -47.1490  -53.6786 O.2       9 UNK        -0.5270 
     30 CA         24.4976  -47.9582  -55.7256 C.3       8 UNK         0.0284 
     31 CB         24.0324  -46.6380  -56.3646 C.3       8 UNK        -0.1977 
     32 N          24.8176  -48.9091  -56.7927 N.am      8 UNK        -0.4342 
     33 C          24.9054  -50.2366  -56.6364 C.2       8 UNK         0.5039 
     34 O          24.6394  -50.8214  -55.5858 O.2       8 UNK        -0.5547 
     35 CA         25.3974  -51.0501  -57.8505 C.3       7 UNK         0.0281 
     36 CB         24.2024  -51.6160  -58.6352 C.3       7 UNK        -0.1963 
     37 N          26.2785  -50.3145  -58.7712 N.am      7 UNK        -0.4444 
     38 C          27.4448  -49.7499  -58.4316 C.2       7 UNK         0.5104 
     39 O          27.8827  -49.7233  -57.2775 O.2       7 UNK        -0.5100 
     40 CA         28.2359  -49.0625  -59.5506 C.3       6 UNK         0.0396 
     41 CB         27.6162  -47.7032  -59.9191 C.3       6 UNK        -0.1801 
     42 N          29.5889  -48.8571  -59.0533 N.am      6 UNK        -0.4747 
     43 C          30.7271  -48.9228  -59.7494 C.2       6 UNK         0.5012 
     44 O          30.7770  -49.0726  -60.9709 O.2       6 UNK        -0.5003 
     45 CA         32.0341  -48.8026  -58.9357 C.3       5 UNK         0.0782 
     46 C46        32.5780  -47.3591  -59.0337 C.3       11 UNK        -0.0868 
     47 S47        34.2107  -47.1609  -58.2464 S.3       11 UNK        -0.2515 
     48 C48        34.5285  -45.3856  -58.5127 C.3       11 UNK         0.0199 
     49 N          31.8561  -49.2241  -57.5374 N.am      5 UNK        -0.4607 
     50 C          31.6602  -50.4854  -57.1327 C.2       4 UNK         0.5031 
     51 O          31.6618  -51.4498  -57.8994 O.2       4 UNK        -0.5119 
     52 CA         31.4439  -50.6967  -55.6211 C.3       4 UNK         0.0263 
     53 CB         31.2304  -52.1762  -55.2506 C.3       4 UNK        -0.1967 
     54 N          32.5673  -50.1676  -54.8437 N.am      4 UNK        -0.4237 
     55 C          32.7110  -48.8869  -54.4840 C.2       3 UNK         0.4908 
     56 O          31.8891  -48.0098  -54.7539 O.2       3 UNK        -0.5102 
     57 CA         34.0043  -48.5209  -53.7419 C.3       3 UNK         0.0241 
     58 CB         34.7971  -47.4499  -54.5062 C.3       3 UNK        -0.1971 
     59 N          33.7042  -48.0230  -52.4030 N.am      3 UNK        -0.4139 
     60 C          33.4936  -48.8011  -51.3336 C.2       2 UNK         0.5016 
     61 O          33.5239  -50.0322  -51.3704 O.2       2 UNK        -0.5319 
     62 CA         33.2414  -48.0999  -49.9850 C.3       2 UNK         0.0286 
     63 CB         34.5034  -48.1576  -49.1079 C.3       2 UNK        -0.1963 
     64 N          32.8172  -46.7012  -50.1149 N.am      2 UNK        -0.4790 
     65 C          31.5864  -46.3255  -50.4870 C.2       1 UNK         0.5024 
     66 O          30.6867  -47.1318  -50.7361 O.2       1 UNK        -0.4888 
     67 H67        27.2567  -42.9029  -50.7064 H         1 UNK         0.0892 
     68 H68        26.9680  -44.3166  -49.6895 H         1 UNK         0.0892 
     69 H69        27.4107  -44.5262  -51.3816 H         1 UNK         0.0892 
     70 H70        29.5682  -45.0799  -51.6860 H         1 UNK         0.3107 
     71 H71        31.5574  -44.4199  -49.5760 H         1 UNK         0.0773 
     72 H72        32.0588  -43.0031  -51.5293 H         1 UNK         0.0680 
     73 H73        33.3073  -44.1859  -51.2825 H         1 UNK         0.0680 
     74 H74        32.4956  -42.3128  -53.9097 H         1 UNK         0.0650 
     75 H75        33.9789  -43.2467  -53.9176 H         1 UNK         0.0650 
     76 H76        34.5919  -44.6235  -55.8934 H         1 UNK         0.1397 
     77 H77        32.2259  -44.2721  -59.4511 H         1 UNK         0.1363 
     78 H78        30.9216  -42.4083  -55.8209 H         1 UNK         0.1355 
     79 H79        30.3232  -42.7686  -59.4743 H         1 UNK         0.0707 
     80 H80        29.8393  -41.8791  -58.0577 H         1 UNK         0.0707 
     81 H81        26.8565  -43.5651  -56.9132 H         1 UNK         0.1034 
     82 H82        28.0503  -42.3223  -56.7104 H         1 UNK         0.1034 
     83 H83        29.3527  -43.8287  -55.1557 H         1 UNK         0.0482 
     84 H84        29.0804  -42.0727  -53.7372 H         1 UNK         0.3460 
     85 H85        27.6012  -41.7799  -52.8648 H         1 UNK         0.3460 
     86 H86        27.7767  -45.8840  -56.1508 H         1 UNK         0.2989 
     87 H87        28.9593  -48.1053  -55.1547 H         1 UNK         0.0559 
     88 H88        28.1476  -49.6551  -53.3691 H         1 UNK         0.0848 
     89 H89        27.5875  -48.2738  -52.4232 H         1 UNK         0.0848 
     90 H90        29.3011  -48.4835  -52.7519 H         1 UNK         0.0848 
     91 H91        26.9975  -48.5572  -56.0278 H         1 UNK         0.3144 
     92 H92        23.6712  -48.3631  -55.1373 H         1 UNK         0.0727 
     93 H93        23.1578  -46.7888  -56.9977 H         1 UNK         0.0790 
     94 H94        24.8157  -46.1837  -56.9729 H         1 UNK         0.0790 
     95 H95        23.7542  -45.9110  -55.6000 H         1 UNK         0.0790 
     96 H96        25.0308  -48.5234  -57.7009 H         1 UNK         0.3215 
     97 H97        25.9735  -51.8898  -57.4556 H         1 UNK         0.0863 
     98 H98        24.5293  -52.2875  -59.4294 H         1 UNK         0.0808 
     99 H99        23.6039  -50.8242  -59.0874 H         1 UNK         0.0808 
    100 H100       23.5428  -52.1895  -57.9820 H         1 UNK         0.0808 
    101 H101       25.9910  -50.2821  -59.7394 H         1 UNK         0.3118 
    102 H102       28.2521  -49.7191  -60.4230 H         1 UNK         0.0546 
    103 H103       26.6038  -47.8206  -60.3067 H         1 UNK         0.0828 
    104 H104       28.1994  -47.2006  -60.6908 H         1 UNK         0.0828 
    105 H105       27.5637  -47.0357  -59.0578 H         1 UNK         0.0828 
    106 H106       29.6459  -48.8126  -58.0433 H         1 UNK         0.3005 
    107 H107       32.7578  -49.4761  -59.4006 H         1 UNK         0.1257 
    108 H108       32.6694  -47.0480  -60.0765 H         1 UNK         0.0775 
    109 H109       31.8721  -46.6732  -58.5630 H         1 UNK         0.0775 
    110 H110       35.5419  -45.1541  -58.1814 H         1 UNK         0.0840 
    111 H111       34.5008  -45.1669  -59.5813 H         1 UNK         0.0840 
    112 H112       31.8805  -48.4936  -56.8342 H         1 UNK         0.2987 
    113 H113       30.5327  -50.1583  -55.3498 H         1 UNK         0.0785 
    114 H114       32.0982  -52.7871  -55.5026 H         1 UNK         0.0798 
    115 H115       30.3725  -52.5909  -55.7820 H         1 UNK         0.0798 
    116 H116       31.0349  -52.2930  -54.1845 H         1 UNK         0.0798 
    117 H117       33.2977  -50.8244  -54.6072 H         1 UNK         0.3079 
    118 H118       34.6380  -49.4068  -53.6585 H         1 UNK         0.0794 
    119 H119       34.2060  -46.5460  -54.6524 H         1 UNK         0.0786 
    120 H120       35.0909  -47.8140  -55.4906 H         1 UNK         0.0786 
    121 H121       35.7096  -47.1740  -53.9775 H         1 UNK         0.0786 
    122 H122       33.5898  -47.0250  -52.3038 H         1 UNK         0.3032 
    123 H123       32.4500  -48.6576  -49.4783 H         1 UNK         0.1094 
    124 H124       34.3201  -47.7364  -48.1192 H         1 UNK         0.0794 
    125 H125       34.8307  -49.1882  -48.9620 H         1 UNK         0.0794 
    126 H126       35.3345  -47.6133  -49.5581 H         1 UNK         0.0794 
    127 H127       33.5084  -45.9942  -49.9063 H         1 UNK         0.3016 
@<TRIPOS>BOND
     1    1    2 1    
     2    1   67 1    
     3    1   68 1    
     4    1   69 1    
     5    2    3 2    
     6    2    4 am   BACKBONE|DICT|INTERRES
     7    4    5 1    
     8    4   70 1    
     9    5    6 1    
    10    5   65 1    
    11    5   71 1    
    12    6    7 1    
    13    6   72 1    
    14    6   73 1    
    15    7    8 1    
    16    8    9 1    
    17    8   74 1    
    18    8   75 1    
    19    9   10 ar   
    20    9   14 ar   
    21   10   11 ar   
    22   10   76 1    
    23   11   12 ar   
    24   11   48 1    
    25   12   13 ar   
    26   12   77 1    
    27   13   14 ar   
    28   13   15 1    
    29   14   78 1    
    30   15   16 1    
    31   15   79 1    
    32   15   80 1    
    33   16   17 1    
    34   17   18 1    
    35   17   81 1    
    36   17   82 1    
    37   18   19 1    
    38   18   22 1    
    39   18   83 1    
    40   19   20 am   BACKBONE|DICT|INTERRES
    41   19   21 2    
    42   20   84 1    
    43   20   85 1    
    44   22   23 am   BACKBONE|DICT|INTERRES
    45   22   86 1    
    46   23   24 2    
    47   23   25 1    
    48   25   26 1    
    49   25   27 1    
    50   25   87 1    
    51   26   88 1    
    52   26   89 1    
    53   26   90 1    
    54   27   28 am   BACKBONE|DICT|INTERRES
    55   27   91 1    
    56   28   29 2    
    57   28   30 1    
    58   30   31 1    
    59   30   32 1    
    60   30   92 1    
    61   31   93 1    
    62   31   94 1    
    63   31   95 1    
    64   32   33 am   BACKBONE|DICT|INTERRES
    65   32   96 1    
    66   33   34 2    
    67   33   35 1    
    68   35   36 1    
    69   35   37 1    
    70   35   97 1    
    71   36   98 1    
    72   36   99 1    
    73   36  100 1    
    74   37   38 am   BACKBONE|DICT|INTERRES
    75   37  101 1    
    76   38   39 2    
    77   38   40 1    
    78   40   41 1    
    79   40   42 1    
    80   40  102 1    
    81   41  103 1    
    82   41  104 1    
    83   41  105 1    
    84   42   43 am   BACKBONE|DICT|INTERRES
    85   42  106 1    
    86   43   44 2    
    87   43   45 1    
    88   45   46 1    
    89   45   49 1    
    90   45  107 1    
    91   46   47 1    
    92   46  108 1    
    93   46  109 1    
    94   47   48 1    
    95   48  110 1    
    96   48  111 1    
    97   49   50 am   BACKBONE|DICT|INTERRES
    98   49  112 1    
    99   50   51 2    
   100   50   52 1    
   101   52   53 1    
   102   52   54 1    
   103   52  113 1    
   104   53  114 1    
   105   53  115 1    
   106   53  116 1    
   107   54   55 am   BACKBONE|DICT|INTERRES
   108   54  117 1    
   109   55   56 2    
   110   55   57 1    
   111   57   58 1    
   112   57   59 1    
   113   57  118 1    
   114   58  119 1    
   115   58  120 1    
   116   58  121 1    
   117   59   60 am   BACKBONE|DICT|INTERRES
   118   59  122 1    
   119   60   61 2    
   120   60   62 1    
   121   62   63 1    
   122   62   64 1    
   123   62  123 1    
   124   63  124 1    
   125   63  125 1    
   126   63  126 1    
   127   64   65 am   BACKBONE|DICT|INTERRES
   128   64  127 1    
   129   65   66 2    
@<TRIPOS>SUBSTRUCTURE
     1 UNK         1 GROUP             0       ****    0 ROOT    
