@<TRIPOS>MOLECULE
3R134
127   129    1
SMALL
USER_CHARGES


@<TRIPOS>ATOM
      1 CA         35.5149  -43.6723  -50.0335 C.3       0 UNK        -0.1968 
      2 C          35.5684  -44.8569  -50.9866 C.2       0 UNK         0.4852 
      3 O          36.3374  -45.7933  -50.7603 O.2       0 UNK        -0.5359 
      4 N          34.7518  -44.8309  -52.0478 N.am      1 UNK        -0.4300 
      5 CA         34.6553  -45.8746  -53.0727 C.3       1 UNK         0.0863 
      6 C6         34.1326  -45.3283  -54.4259 C.3       11 UNK        -0.0953 
      7 S7         35.1141  -43.9474  -55.1138 S.3       11 UNK        -0.2369 
      8 C8         34.2669  -42.4496  -54.4955 C.3       11 UNK         0.0226 
      9 C9         32.7542  -42.5098  -54.6591 C.ar      11 UNK        -0.0699 
     10 C10        31.9327  -42.6692  -53.5382 C.ar      11 UNK        -0.0804 
     11 C11        30.5478  -42.7931  -53.6805 C.ar      11 UNK        -0.0871 
     12 C12        29.9828  -42.7227  -54.9577 C.ar      11 UNK        -0.1008 
     13 C13        30.7939  -42.5596  -56.0847 C.ar      11 UNK        -0.0735 
     14 C14        32.1783  -42.4476  -55.9308 C.ar      11 UNK        -0.0945 
     15 C15        30.1722  -42.5408  -57.4692 C.3       11 UNK         0.0169 
     16 S16        30.0056  -44.2347  -58.1040 S.3       11 UNK        -0.2669 
     17 C17        28.8829  -43.9614  -59.5173 C.3       11 UNK        -0.0850 
     18 CA         27.3847  -43.8751  -59.1134 C.3       10 UNK         0.0855 
     19 C          26.4838  -43.7471  -60.3777 C.2       10 UNK         0.5543 
     20 N          25.6222  -44.7096  -60.6894 N.am      10 UNK        -0.7343 
     21 O          26.5717  -42.7502  -61.0899 O.2       10 UNK        -0.5027 
     22 N          27.0068  -44.9592  -58.1977 N.am      10 UNK        -0.4495 
     23 C          25.8982  -45.0067  -57.4495 C.2       10 UNK         0.4903 
     24 O          25.0842  -44.0859  -57.3676 O.2       10 UNK        -0.4860 
     25 CA         25.6687  -46.3183  -56.6716 C.3       9 UNK         0.0227 
     26 CB         24.1825  -46.5730  -56.3462 C.3       9 UNK        -0.1964 
     27 N          26.2692  -47.4879  -57.3303 N.am      9 UNK        -0.4231 
     28 C          26.0007  -47.9472  -58.5635 C.2       9 UNK         0.5014 
     29 O          25.1553  -47.4565  -59.3135 O.2       9 UNK        -0.5270 
     30 CA         26.8574  -49.1130  -59.0732 C.3       8 UNK         0.0284 
     31 CB         28.0585  -48.5757  -59.8715 C.3       8 UNK        -0.1977 
     32 N          27.3426  -49.9611  -57.9812 N.am      8 UNK        -0.4342 
     33 C          26.7760  -51.1193  -57.6214 C.2       8 UNK         0.5039 
     34 O          25.7646  -51.5843  -58.1493 O.2       8 UNK        -0.5547 
     35 CA         27.4691  -51.9134  -56.5056 C.3       7 UNK         0.0281 
     36 CB         28.7544  -52.5752  -57.0312 C.3       7 UNK        -0.1963 
     37 N          27.7832  -51.1114  -55.3227 N.am      7 UNK        -0.4444 
     38 C          26.8847  -50.7221  -54.4077 C.2       7 UNK         0.5104 
     39 O          25.6711  -50.8973  -54.5177 O.2       7 UNK        -0.5100 
     40 CA         27.4370  -50.0539  -53.1383 C.3       6 UNK         0.0396 
     41 CB         28.1341  -51.0854  -52.2348 C.3       6 UNK        -0.1801 
     42 N          28.3723  -48.9783  -53.4633 N.am      6 UNK        -0.4747 
     43 C          28.0190  -47.6959  -53.6349 C.2       6 UNK         0.5012 
     44 O          26.8711  -47.2850  -53.4670 O.2       6 UNK        -0.5003 
     45 CA         29.1202  -46.7079  -54.0925 C.3       5 UNK         0.0782 
     46 C46        29.6400  -45.8373  -52.9175 C.3       11 UNK        -0.0868 
     47 S47        28.5316  -44.4211  -52.5877 S.3       11 UNK        -0.2515 
     48 C48        29.6768  -43.0057  -52.4465 C.3       11 UNK         0.0199 
     49 N          30.2169  -47.3714  -54.8083 N.am      5 UNK        -0.4607 
     50 C          30.0745  -47.9686  -56.0007 C.2       4 UNK         0.5031 
     51 O          29.0047  -48.0345  -56.6070 O.2       4 UNK        -0.5119 
     52 CA         31.3086  -48.6641  -56.5943 C.3       4 UNK         0.0263 
     53 CB         32.1804  -47.6460  -57.3448 C.3       4 UNK        -0.1967 
     54 N          32.1154  -49.3863  -55.6037 N.am      4 UNK        -0.4237 
     55 C          31.6721  -50.4064  -54.8517 C.2       3 UNK         0.4908 
     56 O          30.5120  -50.8140  -54.8653 O.2       3 UNK        -0.5102 
     57 CA         32.6671  -51.0219  -53.8672 C.3       3 UNK         0.0241 
     58 CB         33.9314  -51.5629  -54.5627 C.3       3 UNK        -0.1971 
     59 N          32.9935  -49.9944  -52.8912 N.am      3 UNK        -0.4139 
     60 C          33.4967  -50.1552  -51.6677 C.2       2 UNK         0.5016 
     61 O          33.8332  -51.2463  -51.2035 O.2       2 UNK        -0.5319 
     62 CA         33.6342  -48.8651  -50.8266 C.3       2 UNK         0.0286 
     63 CB         34.3822  -49.1013  -49.5012 C.3       2 UNK        -0.1963 
     64 N          34.2789  -47.7495  -51.5350 N.am      2 UNK        -0.4790 
     65 C          33.7823  -47.0386  -52.5573 C.2       1 UNK         0.5024 
     66 O          32.6836  -47.2684  -53.0737 O.2       1 UNK        -0.4888 
     67 H67        35.2255  -44.0057  -49.0373 H         1 UNK         0.0892 
     68 H68        36.4960  -43.2031  -49.9644 H         1 UNK         0.0892 
     69 H69        34.8005  -42.9166  -50.3597 H         1 UNK         0.0892 
     70 H70        34.1232  -44.0527  -52.1671 H         1 UNK         0.3107 
     71 H71        35.6549  -46.2771  -53.2520 H         1 UNK         0.0773 
     72 H72        33.0805  -45.0527  -54.3629 H         1 UNK         0.0680 
     73 H73        34.1730  -46.1267  -55.1678 H         1 UNK         0.0680 
     74 H74        34.5376  -42.2939  -53.4507 H         1 UNK         0.0650 
     75 H75        34.6512  -41.5836  -55.0362 H         1 UNK         0.0650 
     76 H76        32.3728  -42.7171  -52.5523 H         1 UNK         0.1397 
     77 H77        28.9124  -42.8218  -55.0776 H         1 UNK         0.1363 
     78 H78        32.8112  -42.3417  -56.8013 H         1 UNK         0.1355 
     79 H79        29.1934  -42.0613  -57.4251 H         1 UNK         0.0707 
     80 H80        30.7791  -41.9500  -58.1570 H         1 UNK         0.0707 
     81 H81        29.1908  -43.0573  -60.0463 H         1 UNK         0.1034 
     82 H82        29.0362  -44.7843  -60.2183 H         1 UNK         0.1034 
     83 H83        27.2490  -42.9439  -58.5609 H         1 UNK         0.0482 
     84 H84        25.0472  -44.6066  -61.5102 H         1 UNK         0.3460 
     85 H85        25.5293  -45.5366  -60.1116 H         1 UNK         0.3460 
     86 H86        27.6315  -45.7513  -58.1779 H         1 UNK         0.2989 
     87 H87        26.1969  -46.1935  -55.7277 H         1 UNK         0.0559 
     88 H88        23.7699  -45.7647  -55.7415 H         1 UNK         0.0848 
     89 H89        24.0555  -47.4956  -55.7796 H         1 UNK         0.0848 
     90 H90        23.5760  -46.6458  -57.2494 H         1 UNK         0.0848 
     91 H91        27.0621  -47.9003  -56.8483 H         1 UNK         0.3144 
     92 H92        26.2396  -49.6989  -59.7573 H         1 UNK         0.0727 
     93 H93        28.7169  -47.9587  -59.2593 H         1 UNK         0.0790 
     94 H94        27.7255  -47.9616  -60.7096 H         1 UNK         0.0790 
     95 H95        28.6536  -49.3901  -60.2850 H         1 UNK         0.0790 
     96 H96        28.1405  -49.6143  -57.4588 H         1 UNK         0.3215 
     97 H97        26.7880  -52.7107  -56.1992 H         1 UNK         0.0863 
     98 H98        29.2072  -53.2158  -56.2742 H         1 UNK         0.0808 
     99 H99        29.4996  -51.8368  -57.3298 H         1 UNK         0.0808 
    100 H100       28.5455  -53.1994  -57.9011 H         1 UNK         0.0808 
    101 H101       28.7726  -50.9466  -55.1384 H         1 UNK         0.3118 
    102 H102       26.5913  -49.6493  -52.5779 H         1 UNK         0.0546 
    103 H103       29.0038  -51.5340  -52.7160 H         1 UNK         0.0828 
    104 H104       27.4530  -51.8965  -51.9738 H         1 UNK         0.0828 
    105 H105       28.4673  -50.6311  -51.3017 H         1 UNK         0.0828 
    106 H106       29.3231  -49.2503  -53.6739 H         1 UNK         0.3005 
    107 H107       28.6525  -46.0424  -54.8227 H         1 UNK         0.1257 
    108 H108       29.7679  -46.4235  -52.0053 H         1 UNK         0.0775 
    109 H109       30.6308  -45.4484  -53.1541 H         1 UNK         0.0775 
    110 H110       29.0941  -42.1007  -52.2702 H         1 UNK         0.0840 
    111 H111       30.2917  -43.1512  -51.5569 H         1 UNK         0.0840 
    112 H112       31.1243  -47.3627  -54.3549 H         1 UNK         0.2987 
    113 H113       30.9507  -49.3999  -57.3176 H         1 UNK         0.0785 
    114 H114       31.6090  -47.1553  -58.1344 H         1 UNK         0.0798 
    115 H115       33.0385  -48.1239  -57.8176 H         1 UNK         0.0798 
    116 H116       32.5492  -46.8622  -56.6835 H         1 UNK         0.0798 
    117 H117       33.0821  -49.1083  -55.5211 H         1 UNK         0.3079 
    118 H118       32.1654  -51.8463  -53.3559 H         1 UNK         0.0794 
    119 H119       34.5713  -52.0923  -53.8565 H         1 UNK         0.0786 
    120 H120       34.5264  -50.7685  -55.0139 H         1 UNK         0.0786 
    121 H121       33.6704  -52.2692  -55.3519 H         1 UNK         0.0786 
    122 H122       32.7352  -49.0420  -53.1433 H         1 UNK         0.3032 
    123 H123       32.6167  -48.5544  -50.5784 H         1 UNK         0.1094 
    124 H124       35.4105  -49.4223  -49.6722 H         1 UNK         0.0794 
    125 H125       34.4098  -48.1964  -48.8937 H         1 UNK         0.0794 
    126 H126       33.8931  -49.8727  -48.9046 H         1 UNK         0.0794 
    127 H127       35.1768  -47.4463  -51.1701 H         1 UNK         0.3016 
@<TRIPOS>BOND
     1    1    2 1    
     2    1   67 1    
     3    1   68 1    
     4    1   69 1    
     5    2    3 2    
     6    2    4 am   BACKBONE|DICT|INTERRES
     7    4    5 1    
     8    4   70 1    
     9    5    6 1    
    10    5   65 1    
    11    5   71 1    
    12    6    7 1    
    13    6   72 1    
    14    6   73 1    
    15    7    8 1    
    16    8    9 1    
    17    8   74 1    
    18    8   75 1    
    19    9   10 ar   
    20    9   14 ar   
    21   10   11 ar   
    22   10   76 1    
    23   11   12 ar   
    24   11   48 1    
    25   12   13 ar   
    26   12   77 1    
    27   13   14 ar   
    28   13   15 1    
    29   14   78 1    
    30   15   16 1    
    31   15   79 1    
    32   15   80 1    
    33   16   17 1    
    34   17   18 1    
    35   17   81 1    
    36   17   82 1    
    37   18   19 1    
    38   18   22 1    
    39   18   83 1    
    40   19   20 am   BACKBONE|DICT|INTERRES
    41   19   21 2    
    42   20   84 1    
    43   20   85 1    
    44   22   23 am   BACKBONE|DICT|INTERRES
    45   22   86 1    
    46   23   24 2    
    47   23   25 1    
    48   25   26 1    
    49   25   27 1    
    50   25   87 1    
    51   26   88 1    
    52   26   89 1    
    53   26   90 1    
    54   27   28 am   BACKBONE|DICT|INTERRES
    55   27   91 1    
    56   28   29 2    
    57   28   30 1    
    58   30   31 1    
    59   30   32 1    
    60   30   92 1    
    61   31   93 1    
    62   31   94 1    
    63   31   95 1    
    64   32   33 am   BACKBONE|DICT|INTERRES
    65   32   96 1    
    66   33   34 2    
    67   33   35 1    
    68   35   36 1    
    69   35   37 1    
    70   35   97 1    
    71   36   98 1    
    72   36   99 1    
    73   36  100 1    
    74   37   38 am   BACKBONE|DICT|INTERRES
    75   37  101 1    
    76   38   39 2    
    77   38   40 1    
    78   40   41 1    
    79   40   42 1    
    80   40  102 1    
    81   41  103 1    
    82   41  104 1    
    83   41  105 1    
    84   42   43 am   BACKBONE|DICT|INTERRES
    85   42  106 1    
    86   43   44 2    
    87   43   45 1    
    88   45   46 1    
    89   45   49 1    
    90   45  107 1    
    91   46   47 1    
    92   46  108 1    
    93   46  109 1    
    94   47   48 1    
    95   48  110 1    
    96   48  111 1    
    97   49   50 am   BACKBONE|DICT|INTERRES
    98   49  112 1    
    99   50   51 2    
   100   50   52 1    
   101   52   53 1    
   102   52   54 1    
   103   52  113 1    
   104   53  114 1    
   105   53  115 1    
   106   53  116 1    
   107   54   55 am   BACKBONE|DICT|INTERRES
   108   54  117 1    
   109   55   56 2    
   110   55   57 1    
   111   57   58 1    
   112   57   59 1    
   113   57  118 1    
   114   58  119 1    
   115   58  120 1    
   116   58  121 1    
   117   59   60 am   BACKBONE|DICT|INTERRES
   118   59  122 1    
   119   60   61 2    
   120   60   62 1    
   121   62   63 1    
   122   62   64 1    
   123   62  123 1    
   124   63  124 1    
   125   63  125 1    
   126   63  126 1    
   127   64   65 am   BACKBONE|DICT|INTERRES
   128   64  127 1    
   129   65   66 2    
@<TRIPOS>SUBSTRUCTURE
     1 UNK         1 GROUP             0       ****    0 ROOT    
