@<TRIPOS>MOLECULE
3R134
127   129    1
SMALL
USER_CHARGES


@<TRIPOS>ATOM
      1 CA         38.0226  -48.0791  -51.2471 C.3       0 UNK        -0.1968 
      2 C          36.7759  -47.8696  -52.0929 C.2       0 UNK         0.4852 
      3 O          36.1425  -48.8447  -52.5017 O.2       0 UNK        -0.5359 
      4 N          36.3997  -46.6051  -52.3416 N.am      1 UNK        -0.4300 
      5 CA         35.2555  -46.2133  -53.1800 C.3       1 UNK         0.0863 
      6 C6         35.2684  -44.6996  -53.5212 C.3       11 UNK        -0.0953 
      7 S7         34.7936  -44.3887  -55.2567 S.3       11 UNK        -0.2369 
      8 C8         33.7780  -42.8859  -55.1218 C.3       11 UNK         0.0226 
      9 C9         32.2860  -43.1899  -55.1142 C.ar      11 UNK        -0.0699 
     10 C10        31.5903  -43.3184  -53.9076 C.ar      11 UNK        -0.0804 
     11 C11        30.2027  -43.5057  -53.9030 C.ar      11 UNK        -0.0871 
     12 C12        29.5162  -43.5741  -55.1195 C.ar      11 UNK        -0.1008 
     13 C13        30.2027  -43.4657  -56.3311 C.ar      11 UNK        -0.0735 
     14 C14        31.5879  -43.2788  -56.3231 C.ar      11 UNK        -0.0945 
     15 C15        29.4365  -43.5039  -57.6431 C.3       11 UNK         0.0169 
     16 S16        28.9224  -41.8234  -58.1096 S.3       11 UNK        -0.2669 
     17 C17        27.8380  -42.1331  -59.5431 C.3       11 UNK        -0.0850 
     18 CA         26.3352  -41.9536  -59.1754 C.3       10 UNK         0.0855 
     19 C          25.4161  -41.7394  -60.4199 C.2       10 UNK         0.5543 
     20 N          24.1413  -42.1057  -60.3643 N.am      10 UNK        -0.7343 
     21 O          25.8480  -41.2025  -61.4374 O.2       10 UNK        -0.5027 
     22 N          25.8640  -42.9749  -58.2180 N.am      10 UNK        -0.4495 
     23 C          25.7032  -44.2787  -58.4815 C.2       10 UNK         0.4903 
     24 O          25.9134  -44.7880  -59.5852 O.2       10 UNK        -0.4860 
     25 CA         25.1872  -45.1452  -57.3168 C.3       9 UNK         0.0227 
     26 CB         23.7146  -44.8231  -57.0067 C.3       9 UNK        -0.1964 
     27 N          25.2983  -46.5713  -57.6296 N.am      9 UNK        -0.4231 
     28 C          26.4349  -47.2760  -57.5811 C.2       9 UNK         0.5014 
     29 O          27.4984  -46.8384  -57.1407 O.2       9 UNK        -0.5270 
     30 CA         26.3723  -48.6788  -58.1974 C.3       8 UNK         0.0284 
     31 CB         26.7481  -48.6221  -59.6912 C.3       8 UNK        -0.1977 
     32 N          27.2567  -49.6070  -57.4928 N.am      8 UNK        -0.4342 
     33 C          27.1128  -50.9397  -57.5108 C.2       8 UNK         0.5039 
     34 O          26.2127  -51.5192  -58.1218 O.2       8 UNK        -0.5547 
     35 CA         28.1248  -51.7832  -56.7177 C.3       7 UNK         0.0281 
     36 CB         29.4495  -51.9309  -57.4844 C.3       7 UNK        -0.1963 
     37 N          28.3720  -51.2529  -55.3772 N.am      7 UNK        -0.4444 
     38 C          27.5019  -51.3358  -54.3607 C.2       7 UNK         0.5104 
     39 O          26.4146  -51.9098  -54.4336 O.2       7 UNK        -0.5100 
     40 CA         27.9064  -50.6703  -53.0333 C.3       6 UNK         0.0396 
     41 CB         28.6812  -51.6588  -52.1481 C.3       6 UNK        -0.1801 
     42 N          28.7023  -49.4565  -53.2190 N.am      6 UNK        -0.4747 
     43 C          28.2438  -48.3197  -53.7646 C.2       6 UNK         0.5012 
     44 O          27.0721  -48.1500  -54.1036 O.2       6 UNK        -0.5003 
     45 CA         29.2813  -47.1992  -53.9848 C.3       5 UNK         0.0782 
     46 C46        29.5229  -46.4040  -52.6745 C.3       11 UNK        -0.0868 
     47 S47        28.3399  -45.0356  -52.4697 S.3       11 UNK        -0.2515 
     48 C48        29.4440  -43.5870  -52.5817 C.3       11 UNK         0.0199 
     49 N          30.5415  -47.7022  -54.5419 N.am      5 UNK        -0.4607 
     50 C          30.6842  -48.3879  -55.6845 C.2       4 UNK         0.5031 
     51 O          29.7605  -48.6715  -56.4421 O.2       4 UNK        -0.5119 
     52 CA         32.0917  -48.9156  -56.0000 C.3       4 UNK         0.0263 
     53 CB         32.9731  -47.8160  -56.6153 C.3       4 UNK        -0.1967 
     54 N          32.7314  -49.4783  -54.8087 N.am      4 UNK        -0.4237 
     55 C          32.3250  -50.6017  -54.1976 C.2       3 UNK         0.4908 
     56 O          31.4276  -51.3274  -54.6257 O.2       3 UNK        -0.5102 
     57 CA         33.0028  -50.9509  -52.8622 C.3       3 UNK         0.0241 
     58 CB         34.3229  -51.7004  -53.1007 C.3       3 UNK        -0.1971 
     59 N          33.2442  -49.7655  -52.0348 N.am      3 UNK        -0.4139 
     60 C          32.2680  -49.0474  -51.4553 C.2       2 UNK         0.5016 
     61 O          31.0768  -49.3513  -51.5089 O.2       2 UNK        -0.5319 
     62 CA         32.6726  -47.7434  -50.7397 C.3       2 UNK         0.0286 
     63 CB         32.9667  -48.0134  -49.2562 C.3       2 UNK        -0.1963 
     64 N          33.8264  -47.0774  -51.3512 N.am      2 UNK        -0.4790 
     65 C          33.8861  -46.6656  -52.6269 C.2       1 UNK         0.5024 
     66 O          32.9167  -46.6954  -53.3808 O.2       1 UNK        -0.4888 
     67 H67        38.4735  -47.1348  -50.9428 H         1 UNK         0.0892 
     68 H68        37.7754  -48.6432  -50.3483 H         1 UNK         0.0892 
     69 H69        38.7651  -48.6437  -51.8102 H         1 UNK         0.0892 
     70 H70        36.9486  -45.8451  -51.9645 H         1 UNK         0.3107 
     71 H71        35.3885  -46.7715  -54.1097 H         1 UNK         0.0773 
     72 H72        36.2717  -44.2872  -53.4042 H         1 UNK         0.0680 
     73 H73        34.6357  -44.1278  -52.8394 H         1 UNK         0.0680 
     74 H74        34.0096  -42.2417  -55.9713 H         1 UNK         0.0650 
     75 H75        34.0593  -42.3154  -54.2356 H         1 UNK         0.0650 
     76 H76        32.1284  -43.2465  -52.9726 H         1 UNK         0.1397 
     77 H77        28.4421  -43.7010  -55.1238 H         1 UNK         0.1363 
     78 H78        32.1191  -43.1711  -57.2589 H         1 UNK         0.1355 
     79 H79        30.0540  -43.9330  -58.4337 H         1 UNK         0.0707 
     80 H80        28.5619  -44.1486  -57.5458 H         1 UNK         0.0707 
     81 H81        28.1377  -41.4214  -60.3142 H         1 UNK         0.1034 
     82 H82        28.0273  -43.1222  -59.9629 H         1 UNK         0.1034 
     83 H83        26.2522  -41.0068  -58.6402 H         1 UNK         0.0482 
     84 H84        23.7704  -42.5369  -59.5333 H         1 UNK         0.3460 
     85 H85        23.5482  -41.9556  -61.1652 H         1 UNK         0.3460 
     86 H86        25.6492  -42.6340  -57.2921 H         1 UNK         0.2989 
     87 H87        25.7897  -44.9286  -56.4318 H         1 UNK         0.0559 
     88 H88        23.5897  -43.7822  -56.7063 H         1 UNK         0.0848 
     89 H89        23.3395  -45.4369  -56.1874 H         1 UNK         0.0848 
     90 H90        23.0720  -44.9914  -57.8720 H         1 UNK         0.0848 
     91 H91        24.4902  -46.9956  -58.0612 H         1 UNK         0.3144 
     92 H92        25.3459  -49.0404  -58.1027 H         1 UNK         0.0727 
     93 H93        27.7849  -48.3122  -59.8286 H         1 UNK         0.0790 
     94 H94        26.1214  -47.9081  -60.2276 H         1 UNK         0.0790 
     95 H95        26.6203  -49.5905  -60.1749 H         1 UNK         0.0790 
     96 H96        28.0351  -49.1794  -56.9878 H         1 UNK         0.3215 
     97 H97        27.7006  -52.7835  -56.6051 H         1 UNK         0.0863 
     98 H98        30.1554  -52.5582  -56.9396 H         1 UNK         0.0808 
     99 H99        29.9284  -50.9694  -57.6657 H         1 UNK         0.0808 
    100 H100       29.2836  -52.3970  -58.4564 H         1 UNK         0.0808 
    101 H101       29.2536  -50.7784  -55.2250 H         1 UNK         0.3118 
    102 H102       26.9902  -50.3918  -52.5087 H         1 UNK         0.0546 
    103 H103       29.6228  -51.9602  -52.6083 H         1 UNK         0.0828 
    104 H104       28.0992  -52.5641  -51.9710 H         1 UNK         0.0828 
    105 H105       28.9100  -51.2243  -51.1748 H         1 UNK         0.0828 
    106 H106       29.6625  -49.4840  -52.8859 H         1 UNK         0.3005 
    107 H107       28.8725  -46.5280  -54.7442 H         1 UNK         0.1257 
    108 H108       30.5269  -45.9809  -52.6673 H         1 UNK         0.0775 
    109 H109       29.4799  -47.0450  -51.7917 H         1 UNK         0.0775 
    110 H110       28.8476  -42.6813  -52.4641 H         1 UNK         0.0840 
    111 H111       30.1354  -43.6102  -51.7377 H         1 UNK         0.0840 
    112 H112       31.3842  -47.4635  -54.0246 H         1 UNK         0.2987 
    113 H113       31.9918  -49.7166  -56.7358 H         1 UNK         0.0785 
    114 H114       32.5353  -47.4472  -57.5437 H         1 UNK         0.0798 
    115 H115       33.9692  -48.1894  -56.8529 H         1 UNK         0.0798 
    116 H116       33.0848  -46.9579  -55.9529 H         1 UNK         0.0798 
    117 H117       33.4484  -48.9205  -54.3689 H         1 UNK         0.3079 
    118 H118       32.3307  -51.6143  -52.3133 H         1 UNK         0.0794 
    119 H119       34.1552  -52.6093  -53.6801 H         1 UNK         0.0786 
    120 H120       34.7862  -51.9966  -52.1595 H         1 UNK         0.0786 
    121 H121       35.0419  -51.0913  -53.6501 H         1 UNK         0.0786 
    122 H122       34.2026  -49.4348  -51.9771 H         1 UNK         0.3032 
    123 H123       31.8239  -47.0598  -50.8016 H         1 UNK         0.1094 
    124 H124       33.1672  -47.0880  -48.7159 H         1 UNK         0.0794 
    125 H125       32.1140  -48.4909  -48.7711 H         1 UNK         0.0794 
    126 H126       33.8263  -48.6724  -49.1271 H         1 UNK         0.0794 
    127 H127       34.6684  -47.0222  -50.7968 H         1 UNK         0.3016 
@<TRIPOS>BOND
     1    1    2 1    
     2    1   67 1    
     3    1   68 1    
     4    1   69 1    
     5    2    3 2    
     6    2    4 am   BACKBONE|DICT|INTERRES
     7    4    5 1    
     8    4   70 1    
     9    5    6 1    
    10    5   65 1    
    11    5   71 1    
    12    6    7 1    
    13    6   72 1    
    14    6   73 1    
    15    7    8 1    
    16    8    9 1    
    17    8   74 1    
    18    8   75 1    
    19    9   10 ar   
    20    9   14 ar   
    21   10   11 ar   
    22   10   76 1    
    23   11   12 ar   
    24   11   48 1    
    25   12   13 ar   
    26   12   77 1    
    27   13   14 ar   
    28   13   15 1    
    29   14   78 1    
    30   15   16 1    
    31   15   79 1    
    32   15   80 1    
    33   16   17 1    
    34   17   18 1    
    35   17   81 1    
    36   17   82 1    
    37   18   19 1    
    38   18   22 1    
    39   18   83 1    
    40   19   20 am   BACKBONE|DICT|INTERRES
    41   19   21 2    
    42   20   84 1    
    43   20   85 1    
    44   22   23 am   BACKBONE|DICT|INTERRES
    45   22   86 1    
    46   23   24 2    
    47   23   25 1    
    48   25   26 1    
    49   25   27 1    
    50   25   87 1    
    51   26   88 1    
    52   26   89 1    
    53   26   90 1    
    54   27   28 am   BACKBONE|DICT|INTERRES
    55   27   91 1    
    56   28   29 2    
    57   28   30 1    
    58   30   31 1    
    59   30   32 1    
    60   30   92 1    
    61   31   93 1    
    62   31   94 1    
    63   31   95 1    
    64   32   33 am   BACKBONE|DICT|INTERRES
    65   32   96 1    
    66   33   34 2    
    67   33   35 1    
    68   35   36 1    
    69   35   37 1    
    70   35   97 1    
    71   36   98 1    
    72   36   99 1    
    73   36  100 1    
    74   37   38 am   BACKBONE|DICT|INTERRES
    75   37  101 1    
    76   38   39 2    
    77   38   40 1    
    78   40   41 1    
    79   40   42 1    
    80   40  102 1    
    81   41  103 1    
    82   41  104 1    
    83   41  105 1    
    84   42   43 am   BACKBONE|DICT|INTERRES
    85   42  106 1    
    86   43   44 2    
    87   43   45 1    
    88   45   46 1    
    89   45   49 1    
    90   45  107 1    
    91   46   47 1    
    92   46  108 1    
    93   46  109 1    
    94   47   48 1    
    95   48  110 1    
    96   48  111 1    
    97   49   50 am   BACKBONE|DICT|INTERRES
    98   49  112 1    
    99   50   51 2    
   100   50   52 1    
   101   52   53 1    
   102   52   54 1    
   103   52  113 1    
   104   53  114 1    
   105   53  115 1    
   106   53  116 1    
   107   54   55 am   BACKBONE|DICT|INTERRES
   108   54  117 1    
   109   55   56 2    
   110   55   57 1    
   111   57   58 1    
   112   57   59 1    
   113   57  118 1    
   114   58  119 1    
   115   58  120 1    
   116   58  121 1    
   117   59   60 am   BACKBONE|DICT|INTERRES
   118   59  122 1    
   119   60   61 2    
   120   60   62 1    
   121   62   63 1    
   122   62   64 1    
   123   62  123 1    
   124   63  124 1    
   125   63  125 1    
   126   63  126 1    
   127   64   65 am   BACKBONE|DICT|INTERRES
   128   64  127 1    
   129   65   66 2    
@<TRIPOS>SUBSTRUCTURE
     1 UNK         1 GROUP             0       ****    0 ROOT    
