@<TRIPOS>MOLECULE
3R134
127   129    1
SMALL
USER_CHARGES


@<TRIPOS>ATOM
      1 CA         37.7982  -44.8064  -50.3435 C.3       0 UNK        -0.1968 
      2 C          36.5018  -45.1390  -51.0677 C.2       0 UNK         0.4852 
      3 O          35.4257  -44.8000  -50.5738 O.2       0 UNK        -0.5359 
      4 N          36.6014  -45.8013  -52.2307 N.am      1 UNK        -0.4300 
      5 CA         35.4843  -46.2263  -53.0895 C.3       1 UNK         0.0863 
      6 C6         34.6635  -45.0250  -53.6460 C.3       11 UNK        -0.0953 
      7 S7         34.2355  -45.2033  -55.4116 S.3       11 UNK        -0.2369 
      8 C8         33.6193  -43.5335  -55.8135 C.3       11 UNK         0.0226 
      9 C9         32.1195  -43.4191  -55.5807 C.ar      11 UNK        -0.0699 
     10 C10        31.6176  -43.3312  -54.2807 C.ar      11 UNK        -0.0804 
     11 C11        30.2413  -43.3156  -54.0496 C.ar      11 UNK        -0.0871 
     12 C12        29.3602  -43.3154  -55.1336 C.ar      11 UNK        -0.1008 
     13 C13        29.8486  -43.3624  -56.4428 C.ar      11 UNK        -0.0735 
     14 C14        31.2295  -43.4249  -56.6603 C.ar      11 UNK        -0.0945 
     15 C15        28.8811  -43.4109  -57.6147 C.3       11 UNK         0.0169 
     16 S16        27.7999  -41.9473  -57.6824 S.3       11 UNK        -0.2669 
     17 C17        26.7737  -42.3499  -59.1379 C.3       11 UNK        -0.0850 
     18 CA         25.4045  -42.9875  -58.7775 C.3       10 UNK         0.0855 
     19 C          24.5436  -43.1622  -60.0642 C.2       10 UNK         0.5543 
     20 N          24.3440  -44.3727  -60.5748 N.am      10 UNK        -0.7343 
     21 O          24.0508  -42.1769  -60.6076 O.2       10 UNK        -0.5027 
     22 N          25.5694  -44.2215  -57.9944 N.am      10 UNK        -0.4495 
     23 C          24.5943  -44.8764  -57.3526 C.2       10 UNK         0.4903 
     24 O          23.4560  -44.4279  -57.2086 O.2       10 UNK        -0.4860 
     25 CA         24.9449  -46.2692  -56.7814 C.3       9 UNK         0.0227 
     26 CB         23.7548  -47.2465  -56.8726 C.3       9 UNK        -0.1964 
     27 N          26.1527  -46.8895  -57.3515 N.am      9 UNK        -0.4231 
     28 C          26.3955  -47.1726  -58.6426 C.2       9 UNK         0.5014 
     29 O          25.6285  -46.8907  -59.5650 O.2       9 UNK        -0.5270 
     30 CA         27.7347  -47.8525  -58.9667 C.3       8 UNK         0.0284 
     31 CB         28.8805  -46.8283  -58.9852 C.3       8 UNK        -0.1977 
     32 N          28.0556  -48.9365  -58.0374 N.am      8 UNK        -0.4342 
     33 C          27.4544  -50.1346  -58.0472 C.2       8 UNK         0.5039 
     34 O          26.5900  -50.4627  -58.8615 O.2       8 UNK        -0.5547 
     35 CA         27.8879  -51.1421  -56.9699 C.3       7 UNK         0.0281 
     36 CB         29.2288  -51.7958  -57.3398 C.3       7 UNK        -0.1963 
     37 N          27.9793  -50.5416  -55.6385 N.am      7 UNK        -0.4444 
     38 C          26.9318  -50.0835  -54.9391 C.2       7 UNK         0.5104 
     39 O          25.7638  -50.1549  -55.3211 O.2       7 UNK        -0.5100 
     40 CA         27.2360  -49.4294  -53.5815 C.3       6 UNK         0.0396 
     41 CB         27.3151  -50.4914  -52.4734 C.3       6 UNK        -0.1801 
     42 N          28.4669  -48.6370  -53.5876 N.am      6 UNK        -0.4747 
     43 C          28.6385  -47.4991  -54.2761 C.2       6 UNK         0.5012 
     44 O          27.7852  -47.0062  -55.0155 O.2       6 UNK        -0.5003 
     45 CA         30.0222  -46.8263  -54.1481 C.3       5 UNK         0.0782 
     46 C46        30.2391  -46.1826  -52.7483 C.3       11 UNK        -0.0868 
     47 S47        28.9471  -44.9793  -52.2529 S.3       11 UNK        -0.2515 
     48 C48        29.7125  -43.3668  -52.6258 C.3       11 UNK         0.0199 
     49 N          31.1069  -47.7577  -54.4817 N.am      5 UNK        -0.4607 
     50 C          31.2127  -48.4515  -55.6263 C.2       4 UNK         0.5031 
     51 O          30.4375  -48.3390  -56.5749 O.2       4 UNK        -0.5119 
     52 CA         32.3291  -49.5053  -55.7090 C.3       4 UNK         0.0263 
     53 CB         33.6598  -48.8661  -56.1316 C.3       4 UNK        -0.1967 
     54 N          32.5170  -50.2555  -54.4657 N.am      4 UNK        -0.4237 
     55 C          31.5864  -50.9720  -53.8210 C.2       3 UNK         0.4908 
     56 O          30.4317  -51.1075  -54.2249 O.2       3 UNK        -0.5102 
     57 CA         31.9859  -51.6165  -52.4789 C.3       3 UNK         0.0241 
     58 CB         32.6301  -52.9996  -52.6956 C.3       3 UNK        -0.1971 
     59 N          32.8088  -50.7524  -51.6151 N.am      3 UNK        -0.4139 
     60 C          34.0557  -50.3082  -51.8272 C.2       2 UNK         0.5016 
     61 O          34.7621  -50.6498  -52.7795 O.2       2 UNK        -0.5319 
     62 CA         34.5839  -49.2520  -50.8438 C.3       2 UNK         0.0286 
     63 CB         35.5937  -49.8753  -49.8671 C.3       2 UNK        -0.1963 
     64 N          35.2178  -48.1340  -51.5492 N.am      2 UNK        -0.4790 
     65 C          34.6082  -47.3232  -52.4305 C.2       1 UNK         0.5024 
     66 O          33.4144  -47.4259  -52.7240 O.2       1 UNK        -0.4888 
     67 H67        37.8064  -45.2700  -49.3574 H         1 UNK         0.0892 
     68 H68        37.8888  -43.7282  -50.2138 H         1 UNK         0.0892 
     69 H69        38.6739  -45.1561  -50.8899 H         1 UNK         0.0892 
     70 H70        37.5205  -46.0435  -52.5758 H         1 UNK         0.3107 
     71 H71        35.9682  -46.7242  -53.9312 H         1 UNK         0.0773 
     72 H72        35.2417  -44.1040  -53.5576 H         1 UNK         0.0680 
     73 H73        33.7630  -44.8611  -53.0553 H         1 UNK         0.0680 
     74 H74        34.1485  -42.7812  -55.2272 H         1 UNK         0.0650 
     75 H75        33.8540  -43.3230  -56.8579 H         1 UNK         0.0650 
     76 H76        32.2976  -43.3155  -53.4425 H         1 UNK         0.1397 
     77 H77        28.2927  -43.3095  -54.9580 H         1 UNK         0.1363 
     78 H78        31.6125  -43.4938  -57.6693 H         1 UNK         0.1355 
     79 H79        28.2683  -44.3046  -57.5107 H         1 UNK         0.0707 
     80 H80        29.4200  -43.5039  -58.5590 H         1 UNK         0.0707 
     81 H81        27.3341  -42.9973  -59.8153 H         1 UNK         0.1034 
     82 H82        26.6183  -41.4175  -59.6847 H         1 UNK         0.1034 
     83 H83        24.8666  -42.2795  -58.1441 H         1 UNK         0.0482 
     84 H84        24.7563  -45.1954  -60.1458 H         1 UNK         0.3460 
     85 H85        23.7837  -44.4701  -61.4063 H         1 UNK         0.3460 
     86 H86        26.4662  -44.6732  -58.0637 H         1 UNK         0.2989 
     87 H87        25.1626  -46.1123  -55.7241 H         1 UNK         0.0559 
     88 H88        24.0055  -48.2159  -56.4415 H         1 UNK         0.0848 
     89 H89        23.4455  -47.4093  -57.9056 H         1 UNK         0.0848 
     90 H90        22.8889  -46.8673  -56.3288 H         1 UNK         0.0848 
     91 H91        26.8672  -47.1160  -56.6616 H         1 UNK         0.3144 
     92 H92        27.6521  -48.2758  -59.9702 H         1 UNK         0.0727 
     93 H93        29.8025  -47.2791  -59.3530 H         1 UNK         0.0790 
     94 H94        29.0850  -46.4339  -57.9896 H         1 UNK         0.0790 
     95 H95        28.6486  -45.9863  -59.6387 H         1 UNK         0.0790 
     96 H96        28.8017  -48.7598  -57.3658 H         1 UNK         0.3215 
     97 H97        27.1304  -51.9278  -56.9266 H         1 UNK         0.0863 
     98 H98        29.5239  -52.5428  -56.6026 H         1 UNK         0.0808 
     99 H99        30.0297  -51.0603  -57.4104 H         1 UNK         0.0808 
    100 H100       29.1629  -52.2993  -58.3051 H         1 UNK         0.0808 
    101 H101       28.8999  -50.5099  -55.2066 H         1 UNK         0.3118 
    102 H102       26.4088  -48.7559  -53.3471 H         1 UNK         0.0546 
    103 H103       26.3966  -51.0784  -52.4312 H         1 UNK         0.0828 
    104 H104       27.4505  -50.0340  -51.4933 H         1 UNK         0.0828 
    105 H105       28.1385  -51.1878  -52.6369 H         1 UNK         0.0828 
    106 H106       29.2459  -49.0024  -53.0596 H         1 UNK         0.3005 
    107 H107       30.0580  -46.0349  -54.8984 H         1 UNK         0.1257 
    108 H108       31.2131  -45.6932  -52.7114 H         1 UNK         0.0775 
    109 H109       30.2786  -46.9582  -51.9816 H         1 UNK         0.0775 
    110 H110       28.9731  -42.5776  -52.4827 H         1 UNK         0.0840 
    111 H111       30.5093  -43.1761  -51.9050 H         1 UNK         0.0840 
    112 H112       31.8419  -47.8587  -53.7873 H         1 UNK         0.2987 
    113 H113       32.0430  -50.2242  -56.4783 H         1 UNK         0.0785 
    114 H114       34.0476  -48.2004  -55.3613 H         1 UNK         0.0798 
    115 H115       33.5412  -48.2779  -57.0427 H         1 UNK         0.0798 
    116 H116       34.4179  -49.6238  -56.3301 H         1 UNK         0.0798 
    117 H117       33.4426  -50.2292  -54.0447 H         1 UNK         0.3079 
    118 H118       31.0569  -51.7767  -51.9290 H         1 UNK         0.0794 
    119 H119       33.5524  -52.9387  -53.2739 H         1 UNK         0.0786 
    120 H120       31.9532  -53.6601  -53.2392 H         1 UNK         0.0786 
    121 H121       32.8608  -53.4824  -51.7461 H         1 UNK         0.0786 
    122 H122       32.3212  -50.3889  -50.8075 H         1 UNK         0.3032 
    123 H123       33.7470  -48.8467  -50.2707 H         1 UNK         0.1094 
    124 H124       36.4639  -50.2768  -50.3883 H         1 UNK         0.0794 
    125 H125       35.9453  -49.1448  -49.1380 H         1 UNK         0.0794 
    126 H126       35.1413  -50.6963  -49.3089 H         1 UNK         0.0794 
    127 H127       36.2029  -47.9947  -51.3808 H         1 UNK         0.3016 
@<TRIPOS>BOND
     1    1    2 1    
     2    1   67 1    
     3    1   68 1    
     4    1   69 1    
     5    2    3 2    
     6    2    4 am   BACKBONE|DICT|INTERRES
     7    4    5 1    
     8    4   70 1    
     9    5    6 1    
    10    5   65 1    
    11    5   71 1    
    12    6    7 1    
    13    6   72 1    
    14    6   73 1    
    15    7    8 1    
    16    8    9 1    
    17    8   74 1    
    18    8   75 1    
    19    9   10 ar   
    20    9   14 ar   
    21   10   11 ar   
    22   10   76 1    
    23   11   12 ar   
    24   11   48 1    
    25   12   13 ar   
    26   12   77 1    
    27   13   14 ar   
    28   13   15 1    
    29   14   78 1    
    30   15   16 1    
    31   15   79 1    
    32   15   80 1    
    33   16   17 1    
    34   17   18 1    
    35   17   81 1    
    36   17   82 1    
    37   18   19 1    
    38   18   22 1    
    39   18   83 1    
    40   19   20 am   BACKBONE|DICT|INTERRES
    41   19   21 2    
    42   20   84 1    
    43   20   85 1    
    44   22   23 am   BACKBONE|DICT|INTERRES
    45   22   86 1    
    46   23   24 2    
    47   23   25 1    
    48   25   26 1    
    49   25   27 1    
    50   25   87 1    
    51   26   88 1    
    52   26   89 1    
    53   26   90 1    
    54   27   28 am   BACKBONE|DICT|INTERRES
    55   27   91 1    
    56   28   29 2    
    57   28   30 1    
    58   30   31 1    
    59   30   32 1    
    60   30   92 1    
    61   31   93 1    
    62   31   94 1    
    63   31   95 1    
    64   32   33 am   BACKBONE|DICT|INTERRES
    65   32   96 1    
    66   33   34 2    
    67   33   35 1    
    68   35   36 1    
    69   35   37 1    
    70   35   97 1    
    71   36   98 1    
    72   36   99 1    
    73   36  100 1    
    74   37   38 am   BACKBONE|DICT|INTERRES
    75   37  101 1    
    76   38   39 2    
    77   38   40 1    
    78   40   41 1    
    79   40   42 1    
    80   40  102 1    
    81   41  103 1    
    82   41  104 1    
    83   41  105 1    
    84   42   43 am   BACKBONE|DICT|INTERRES
    85   42  106 1    
    86   43   44 2    
    87   43   45 1    
    88   45   46 1    
    89   45   49 1    
    90   45  107 1    
    91   46   47 1    
    92   46  108 1    
    93   46  109 1    
    94   47   48 1    
    95   48  110 1    
    96   48  111 1    
    97   49   50 am   BACKBONE|DICT|INTERRES
    98   49  112 1    
    99   50   51 2    
   100   50   52 1    
   101   52   53 1    
   102   52   54 1    
   103   52  113 1    
   104   53  114 1    
   105   53  115 1    
   106   53  116 1    
   107   54   55 am   BACKBONE|DICT|INTERRES
   108   54  117 1    
   109   55   56 2    
   110   55   57 1    
   111   57   58 1    
   112   57   59 1    
   113   57  118 1    
   114   58  119 1    
   115   58  120 1    
   116   58  121 1    
   117   59   60 am   BACKBONE|DICT|INTERRES
   118   59  122 1    
   119   60   61 2    
   120   60   62 1    
   121   62   63 1    
   122   62   64 1    
   123   62  123 1    
   124   63  124 1    
   125   63  125 1    
   126   63  126 1    
   127   64   65 am   BACKBONE|DICT|INTERRES
   128   64  127 1    
   129   65   66 2    
@<TRIPOS>SUBSTRUCTURE
     1 UNK         1 GROUP             0       ****    0 ROOT    
