@<TRIPOS>MOLECULE
3R134
127   129    1
SMALL
USER_CHARGES


@<TRIPOS>ATOM
      1 CA         33.0526  -49.6581  -57.5158 C.3       0 UNK        -0.1968 
      2 C          33.7881  -48.6429  -56.6535 C.2       0 UNK         0.4852 
      3 O          35.0114  -48.5345  -56.7515 O.2       0 UNK        -0.5359 
      4 N          33.0496  -47.9095  -55.8089 N.am      1 UNK        -0.4300 
      5 CA         33.4853  -46.8043  -54.9377 C.3       1 UNK         0.0863 
      6 C6         34.1780  -45.6296  -55.6796 C.3       11 UNK        -0.0953 
      7 S7         33.1256  -44.8439  -56.9413 S.3       11 UNK        -0.2369 
      8 C8         32.7255  -43.2570  -56.1453 C.3       11 UNK         0.0226 
      9 C9         31.5258  -43.3747  -55.2178 C.ar      11 UNK        -0.0699 
     10 C10        31.6859  -43.7145  -53.8703 C.ar      11 UNK        -0.0804 
     11 C11        30.5741  -43.7953  -53.0248 C.ar      11 UNK        -0.0871 
     12 C12        29.3016  -43.5150  -53.5323 C.ar      11 UNK        -0.1008 
     13 C13        29.1274  -43.1804  -54.8770 C.ar      11 UNK        -0.0735 
     14 C14        30.2454  -43.1195  -55.7143 C.ar      11 UNK        -0.0945 
     15 C15        27.7260  -42.9290  -55.4193 C.3       11 UNK         0.0169 
     16 S16        27.6308  -41.4589  -56.4946 S.3       11 UNK        -0.2669 
     17 C17        25.8408  -41.3799  -56.8559 C.3       11 UNK        -0.0850 
     18 CA         25.3924  -42.2034  -58.0964 C.3       10 UNK         0.0855 
     19 C          26.0020  -41.7075  -59.4398 C.2       10 UNK         0.5543 
     20 N          26.5691  -42.5675  -60.2815 N.am      10 UNK        -0.7343 
     21 O          25.9334  -40.5184  -59.7413 O.2       10 UNK        -0.5027 
     22 N          25.5340  -43.6476  -57.8908 N.am      10 UNK        -0.4495 
     23 C          24.7337  -44.4304  -57.1686 C.2       10 UNK         0.4903 
     24 O          23.7614  -44.0150  -56.5376 O.2       10 UNK        -0.4860 
     25 CA         25.0603  -45.9351  -57.1319 C.3       9 UNK         0.0227 
     26 CB         24.2231  -46.6908  -58.1812 C.3       9 UNK        -0.1964 
     27 N          26.4815  -46.3041  -57.2429 N.am      9 UNK        -0.4231 
     28 C          27.3356  -46.1457  -58.2674 C.2       9 UNK         0.5014 
     29 O          27.0989  -45.4668  -59.2692 O.2       9 UNK        -0.5270 
     30 CA         28.6758  -46.8968  -58.1647 C.3       8 UNK         0.0284 
     31 CB         29.7080  -46.0896  -57.3664 C.3       8 UNK        -0.1977 
     32 N          28.5209  -48.2248  -57.5657 N.am      8 UNK        -0.4342 
     33 C          27.8760  -49.2465  -58.1492 C.2       8 UNK         0.5039 
     34 O          27.4425  -49.2206  -59.3016 O.2       8 UNK        -0.5547 
     35 CA         27.6593  -50.5038  -57.2945 C.3       7 UNK         0.0281 
     36 CB         28.8763  -51.4360  -57.3906 C.3       7 UNK        -0.1963 
     37 N          27.3866  -50.1658  -55.8940 N.am      7 UNK        -0.4444 
     38 C          26.2022  -49.7140  -55.4525 C.2       7 UNK         0.5104 
     39 O          25.2008  -49.6177  -56.1611 O.2       7 UNK        -0.5100 
     40 CA         26.1115  -49.2840  -53.9761 C.3       6 UNK         0.0396 
     41 CB         25.5896  -50.4431  -53.1126 C.3       6 UNK        -0.1801 
     42 N          27.3797  -48.8008  -53.4226 N.am      6 UNK        -0.4747 
     43 C          28.0025  -47.6731  -53.7992 C.2       6 UNK         0.5012 
     44 O          27.5561  -46.9038  -54.6498 O.2       6 UNK        -0.5003 
     45 CA         29.3860  -47.3994  -53.1708 C.3       5 UNK         0.0782 
     46 C46        29.2524  -46.5718  -51.8712 C.3       11 UNK        -0.0868 
     47 S47        30.8787  -45.9667  -51.3055 S.3       11 UNK        -0.2515 
     48 C48        30.7442  -44.1664  -51.5577 C.3       11 UNK         0.0199 
     49 N          30.1334  -48.6450  -52.9432 N.am      5 UNK        -0.4607 
     50 C          30.5398  -49.4725  -53.9112 C.2       4 UNK         0.5031 
     51 O          30.4278  -49.2130  -55.1122 O.2       4 UNK        -0.5119 
     52 CA         31.1703  -50.7914  -53.4480 C.3       4 UNK         0.0263 
     53 CB         31.5007  -51.7477  -54.6115 C.3       4 UNK        -0.1967 
     54 N          32.3712  -50.5139  -52.6643 N.am      4 UNK        -0.4237 
     55 C          32.9358  -51.3712  -51.8015 C.2       3 UNK         0.4908 
     56 O          32.4408  -52.4594  -51.5034 O.2       3 UNK        -0.5102 
     57 CA         34.2941  -50.9634  -51.2063 C.3       3 UNK         0.0241 
     58 CB         35.1424  -52.1719  -50.7587 C.3       3 UNK        -0.1971 
     59 N          35.0386  -50.1542  -52.1708 N.am      3 UNK        -0.4139 
     60 C          35.9440  -49.2199  -51.8664 C.2       2 UNK         0.5016 
     61 O          36.3393  -48.9815  -50.7243 O.2       2 UNK        -0.5319 
     62 CA         36.4704  -48.3857  -53.0456 C.3       2 UNK         0.0286 
     63 CB         37.6038  -49.1259  -53.7741 C.3       2 UNK        -0.1963 
     64 N          35.4324  -48.0062  -54.0142 N.am      2 UNK        -0.4790 
     65 C          34.3594  -47.2480  -53.7475 C.2       1 UNK         0.5024 
     66 O          34.0587  -46.8721  -52.6160 O.2       1 UNK        -0.4888 
     67 H67        31.9821  -49.6688  -57.3125 H         1 UNK         0.0892 
     68 H68        33.1918  -49.4201  -58.5699 H         1 UNK         0.0892 
     69 H69        33.4454  -50.6588  -57.3392 H         1 UNK         0.0892 
     70 H70        32.0589  -48.1207  -55.7518 H         1 UNK         0.3107 
     71 H71        32.5640  -46.4141  -54.5018 H         1 UNK         0.0773 
     72 H72        34.5011  -44.8682  -54.9676 H         1 UNK         0.0680 
     73 H73        35.0906  -45.9664  -56.1734 H         1 UNK         0.0680 
     74 H74        32.5121  -42.5273  -56.9279 H         1 UNK         0.0650 
     75 H75        33.5908  -42.8673  -55.6075 H         1 UNK         0.0650 
     76 H76        32.6730  -43.9185  -53.4786 H         1 UNK         0.1397 
     77 H77        28.4406  -43.5658  -52.8802 H         1 UNK         0.1363 
     78 H78        30.1195  -42.8686  -56.7585 H         1 UNK         0.1355 
     79 H79        27.4228  -43.8134  -55.9772 H         1 UNK         0.0707 
     80 H80        27.0132  -42.8133  -54.6014 H         1 UNK         0.0707 
     81 H81        25.5766  -40.3306  -56.9983 H         1 UNK         0.1034 
     82 H82        25.2812  -41.6948  -55.9741 H         1 UNK         0.1034 
     83 H83        24.3234  -42.0207  -58.2212 H         1 UNK         0.0482 
     84 H84        26.6383  -43.5553  -60.0764 H         1 UNK         0.3460 
     85 H85        26.9447  -42.2163  -61.1481 H         1 UNK         0.3460 
     86 H86        26.2820  -44.1034  -58.4054 H         1 UNK         0.2989 
     87 H87        24.7511  -46.2915  -56.1480 H         1 UNK         0.0559 
     88 H88        24.4757  -46.3874  -59.1977 H         1 UNK         0.0848 
     89 H89        23.1578  -46.5029  -58.0411 H         1 UNK         0.0848 
     90 H90        24.3743  -47.7679  -58.1067 H         1 UNK         0.0848 
     91 H91        26.8537  -46.7595  -56.4126 H         1 UNK         0.3144 
     92 H92        29.0603  -47.0285  -59.1783 H         1 UNK         0.0727 
     93 H93        30.6641  -46.6101  -57.3170 H         1 UNK         0.0790 
     94 H94        29.3792  -45.8962  -56.3454 H         1 UNK         0.0790 
     95 H95        29.8911  -45.1245  -57.8396 H         1 UNK         0.0790 
     96 H96        28.8835  -48.3554  -56.6303 H         1 UNK         0.3215 
     97 H97        26.7951  -51.0377  -57.6968 H         1 UNK         0.0863 
     98 H98        29.7938  -50.9374  -57.0793 H         1 UNK         0.0808 
     99 H99        29.0261  -51.7683  -58.4187 H         1 UNK         0.0808 
    100 H100       28.7448  -52.3288  -56.7794 H         1 UNK         0.0808 
    101 H101       28.1646  -50.1996  -55.2519 H         1 UNK         0.3118 
    102 H102       25.3898  -48.4662  -53.9188 H         1 UNK         0.0546 
    103 H103       25.4353  -50.1314  -52.0795 H         1 UNK         0.0828 
    104 H104       26.2776  -51.2895  -53.1106 H         1 UNK         0.0828 
    105 H105       24.6302  -50.8052  -53.4852 H         1 UNK         0.0828 
    106 H106       27.8146  -49.3746  -52.7145 H         1 UNK         0.3005 
    107 H107       29.9404  -46.8021  -53.8992 H         1 UNK         0.1257 
    108 H108       28.8130  -47.1746  -51.0743 H         1 UNK         0.0775 
    109 H109       28.5761  -45.7276  -52.0069 H         1 UNK         0.0775 
    110 H110       29.9145  -43.7797  -50.9636 H         1 UNK         0.0840 
    111 H111       31.6432  -43.6898  -51.1641 H         1 UNK         0.0840 
    112 H112       30.2964  -48.8974  -51.9786 H         1 UNK         0.2987 
    113 H113       30.4354  -51.2813  -52.8054 H         1 UNK         0.0785 
    114 H114       31.9195  -52.6877  -54.2526 H         1 UNK         0.0798 
    115 H115       30.6030  -52.0010  -55.1724 H         1 UNK         0.0798 
    116 H116       32.2172  -51.3091  -55.3043 H         1 UNK         0.0798 
    117 H117       32.7858  -49.6010  -52.7916 H         1 UNK         0.3079 
    118 H118       34.0721  -50.3519  -50.3290 H         1 UNK         0.0794 
    119 H119       34.6194  -52.7640  -50.0066 H         1 UNK         0.0786 
    120 H120       36.0861  -51.8543  -50.3151 H         1 UNK         0.0786 
    121 H121       35.3714  -52.8321  -51.5960 H         1 UNK         0.0786 
    122 H122       34.8104  -50.2970  -53.1450 H         1 UNK         0.3032 
    123 H123       36.8797  -47.4631  -52.6277 H         1 UNK         0.1094 
    124 H124       37.2488  -50.0378  -54.2558 H         1 UNK         0.0794 
    125 H125       38.0578  -48.4978  -54.5409 H         1 UNK         0.0794 
    126 H126       38.3955  -49.4098  -53.0792 H         1 UNK         0.0794 
    127 H127       35.5769  -48.2680  -54.9882 H         1 UNK         0.3016 
@<TRIPOS>BOND
     1    1    2 1    
     2    1   67 1    
     3    1   68 1    
     4    1   69 1    
     5    2    3 2    
     6    2    4 am   BACKBONE|DICT|INTERRES
     7    4    5 1    
     8    4   70 1    
     9    5    6 1    
    10    5   65 1    
    11    5   71 1    
    12    6    7 1    
    13    6   72 1    
    14    6   73 1    
    15    7    8 1    
    16    8    9 1    
    17    8   74 1    
    18    8   75 1    
    19    9   10 ar   
    20    9   14 ar   
    21   10   11 ar   
    22   10   76 1    
    23   11   12 ar   
    24   11   48 1    
    25   12   13 ar   
    26   12   77 1    
    27   13   14 ar   
    28   13   15 1    
    29   14   78 1    
    30   15   16 1    
    31   15   79 1    
    32   15   80 1    
    33   16   17 1    
    34   17   18 1    
    35   17   81 1    
    36   17   82 1    
    37   18   19 1    
    38   18   22 1    
    39   18   83 1    
    40   19   20 am   BACKBONE|DICT|INTERRES
    41   19   21 2    
    42   20   84 1    
    43   20   85 1    
    44   22   23 am   BACKBONE|DICT|INTERRES
    45   22   86 1    
    46   23   24 2    
    47   23   25 1    
    48   25   26 1    
    49   25   27 1    
    50   25   87 1    
    51   26   88 1    
    52   26   89 1    
    53   26   90 1    
    54   27   28 am   BACKBONE|DICT|INTERRES
    55   27   91 1    
    56   28   29 2    
    57   28   30 1    
    58   30   31 1    
    59   30   32 1    
    60   30   92 1    
    61   31   93 1    
    62   31   94 1    
    63   31   95 1    
    64   32   33 am   BACKBONE|DICT|INTERRES
    65   32   96 1    
    66   33   34 2    
    67   33   35 1    
    68   35   36 1    
    69   35   37 1    
    70   35   97 1    
    71   36   98 1    
    72   36   99 1    
    73   36  100 1    
    74   37   38 am   BACKBONE|DICT|INTERRES
    75   37  101 1    
    76   38   39 2    
    77   38   40 1    
    78   40   41 1    
    79   40   42 1    
    80   40  102 1    
    81   41  103 1    
    82   41  104 1    
    83   41  105 1    
    84   42   43 am   BACKBONE|DICT|INTERRES
    85   42  106 1    
    86   43   44 2    
    87   43   45 1    
    88   45   46 1    
    89   45   49 1    
    90   45  107 1    
    91   46   47 1    
    92   46  108 1    
    93   46  109 1    
    94   47   48 1    
    95   48  110 1    
    96   48  111 1    
    97   49   50 am   BACKBONE|DICT|INTERRES
    98   49  112 1    
    99   50   51 2    
   100   50   52 1    
   101   52   53 1    
   102   52   54 1    
   103   52  113 1    
   104   53  114 1    
   105   53  115 1    
   106   53  116 1    
   107   54   55 am   BACKBONE|DICT|INTERRES
   108   54  117 1    
   109   55   56 2    
   110   55   57 1    
   111   57   58 1    
   112   57   59 1    
   113   57  118 1    
   114   58  119 1    
   115   58  120 1    
   116   58  121 1    
   117   59   60 am   BACKBONE|DICT|INTERRES
   118   59  122 1    
   119   60   61 2    
   120   60   62 1    
   121   62   63 1    
   122   62   64 1    
   123   62  123 1    
   124   63  124 1    
   125   63  125 1    
   126   63  126 1    
   127   64   65 am   BACKBONE|DICT|INTERRES
   128   64  127 1    
   129   65   66 2    
@<TRIPOS>SUBSTRUCTURE
     1 UNK         1 GROUP             0       ****    0 ROOT    
