@<TRIPOS>MOLECULE
3R134
127   129    1
SMALL
USER_CHARGES


@<TRIPOS>ATOM
      1 CA         30.0523  -45.2646  -52.4020 C.3       0 UNK        -0.1968 
      2 C          31.3850  -45.3230  -51.6709 C.2       0 UNK         0.4852 
      3 O          31.4476  -45.8566  -50.5631 O.2       0 UNK        -0.5359 
      4 N          32.4525  -44.7897  -52.2825 N.am      1 UNK        -0.4300 
      5 CA         33.8157  -44.7828  -51.7279 C.3       1 UNK         0.0863 
      6 C6         34.7027  -43.6862  -52.3706 C.3       11 UNK        -0.0953 
      7 S7         34.0622  -42.0051  -52.0608 S.3       11 UNK        -0.2369 
      8 C8         33.8548  -41.3479  -53.7462 C.3       11 UNK         0.0226 
      9 C9         32.7285  -42.0439  -54.4944 C.ar      11 UNK        -0.0699 
     10 C10        33.0174  -42.9713  -55.5009 C.ar      11 UNK        -0.0804 
     11 C11        31.9847  -43.6254  -56.1772 C.ar      11 UNK        -0.0871 
     12 C12        30.6581  -43.3298  -55.8535 C.ar      11 UNK        -0.1008 
     13 C13        30.3560  -42.4145  -54.8431 C.ar      11 UNK        -0.0735 
     14 C14        31.3959  -41.7652  -54.1724 C.ar      11 UNK        -0.0945 
     15 C15        28.9077  -42.1847  -54.4427 C.3       11 UNK         0.0169 
     16 S16        28.0352  -41.1220  -55.6365 S.3       11 UNK        -0.2669 
     17 C17        26.4210  -41.9796  -55.7759 C.3       11 UNK        -0.0850 
     18 CA         26.1878  -42.6674  -57.1512 C.3       10 UNK         0.0855 
     19 C          25.8000  -41.6378  -58.2551 C.2       10 UNK         0.5543 
     20 N          26.4722  -41.6054  -59.3998 N.am      10 UNK        -0.7343 
     21 O          24.8516  -40.8767  -58.0818 O.2       10 UNK        -0.5027 
     22 N          27.3280  -43.5259  -57.5213 N.am      10 UNK        -0.4495 
     23 C          27.3389  -44.7711  -58.0155 C.2       10 UNK         0.4903 
     24 O          28.3969  -45.2950  -58.3709 O.2       10 UNK        -0.4860 
     25 CA         26.0307  -45.5763  -58.1551 C.3       9 UNK         0.0227 
     26 CB         25.1893  -45.1151  -59.3621 C.3       9 UNK        -0.1964 
     27 N          26.3884  -46.9778  -58.3538 N.am      9 UNK        -0.4231 
     28 C          25.6741  -48.0487  -57.9927 C.2       9 UNK         0.5014 
     29 O          24.5851  -47.9847  -57.4193 O.2       9 UNK        -0.5270 
     30 CA         26.2495  -49.4286  -58.3506 C.3       8 UNK         0.0284 
     31 CB         27.4364  -49.3863  -59.3368 C.3       8 UNK        -0.1977 
     32 N          26.6719  -50.1077  -57.1283 N.am      8 UNK        -0.4342 
     33 C          26.3152  -51.3473  -56.7666 C.2       8 UNK         0.5039 
     34 O          25.5322  -52.0429  -57.4165 O.2       8 UNK        -0.5547 
     35 CA         26.9429  -51.9500  -55.4915 C.3       7 UNK         0.0281 
     36 CB         27.8379  -53.1482  -55.8529 C.3       7 UNK        -0.1963 
     37 N          27.7339  -51.0028  -54.7040 N.am      7 UNK        -0.4444 
     38 C          27.2313  -50.0461  -53.9136 C.2       7 UNK         0.5104 
     39 O          26.0288  -49.8946  -53.6989 O.2       7 UNK        -0.5100 
     40 CA         28.2428  -49.0632  -53.2948 C.3       6 UNK         0.0396 
     41 CB         28.7576  -49.5886  -51.9466 C.3       6 UNK        -0.1801 
     42 N          29.3837  -48.7663  -54.1687 N.am      6 UNK        -0.4747 
     43 C          29.2948  -48.2158  -55.3896 C.2       6 UNK         0.5012 
     44 O          28.2308  -47.9156  -55.9264 O.2       6 UNK        -0.5003 
     45 CA         30.6136  -47.9836  -56.1438 C.3       5 UNK         0.0782 
     46 C46        31.3273  -46.7406  -55.5711 C.3       11 UNK        -0.0868 
     47 S47        32.8167  -46.2563  -56.5024 S.3       11 UNK        -0.2515 
     48 C48        32.2977  -44.6708  -57.2401 C.3       11 UNK         0.0199 
     49 N          31.4400  -49.1899  -56.0961 N.am      5 UNK        -0.4607 
     50 C          31.2086  -50.2903  -56.8246 C.2       4 UNK         0.5031 
     51 O          30.3314  -50.3701  -57.6830 O.2       4 UNK        -0.5119 
     52 CA         32.0878  -51.5198  -56.5356 C.3       4 UNK         0.0263 
     53 CB         33.3308  -51.5142  -57.4395 C.3       4 UNK        -0.1967 
     54 N          32.5062  -51.6141  -55.1345 N.am      4 UNK        -0.4237 
     55 C          31.6745  -51.8100  -54.1006 C.2       3 UNK         0.4908 
     56 O          30.4621  -51.9839  -54.2184 O.2       3 UNK        -0.5102 
     57 CA         32.2955  -51.7399  -52.6940 C.3       3 UNK         0.0241 
     58 CB         32.8571  -53.1098  -52.2818 C.3       3 UNK        -0.1971 
     59 N          33.3416  -50.7165  -52.5689 N.am      3 UNK        -0.4139 
     60 C          33.1469  -49.4069  -52.7750 C.2       2 UNK         0.5016 
     61 O          32.0589  -48.9194  -53.0962 O.2       2 UNK        -0.5319 
     62 CA         34.3770  -48.5000  -52.6642 C.3       2 UNK         0.0286 
     63 CB         35.2595  -48.6178  -53.9197 C.3       2 UNK        -0.1963 
     64 N          33.9207  -47.1211  -52.5267 N.am      2 UNK        -0.4790 
     65 C          34.5122  -46.1625  -51.8054 C.2       1 UNK         0.5024 
     66 O          35.5756  -46.3319  -51.2066 O.2       1 UNK        -0.4888 
     67 H67        30.1584  -44.8633  -53.4074 H         1 UNK         0.0892 
     68 H68        29.6241  -46.2635  -52.4810 H         1 UNK         0.0892 
     69 H69        29.3514  -44.6340  -51.8560 H         1 UNK         0.0892 
     70 H70        32.3452  -44.3283  -53.1758 H         1 UNK         0.3107 
     71 H71        33.7360  -44.5519  -50.6632 H         1 UNK         0.0773 
     72 H72        34.8137  -43.8601  -53.4416 H         1 UNK         0.0680 
     73 H73        35.7124  -43.7180  -51.9565 H         1 UNK         0.0680 
     74 H74        34.7980  -41.4354  -54.2879 H         1 UNK         0.0650 
     75 H75        33.6376  -40.2807  -53.6825 H         1 UNK         0.0650 
     76 H76        34.0454  -43.1987  -55.7490 H         1 UNK         0.1397 
     77 H77        29.8568  -43.8426  -56.3656 H         1 UNK         0.1363 
     78 H78        31.1722  -41.0588  -53.3843 H         1 UNK         0.1355 
     79 H79        28.4192  -43.1565  -54.3620 H         1 UNK         0.0707 
     80 H80        28.8456  -41.7314  -53.4521 H         1 UNK         0.0707 
     81 H81        26.3278  -42.7253  -54.9859 H         1 UNK         0.1034 
     82 H82        25.6298  -41.2583  -55.5619 H         1 UNK         0.1034 
     83 H83        25.2985  -43.2840  -57.0293 H         1 UNK         0.0482 
     84 H84        26.2055  -40.9415  -60.1097 H         1 UNK         0.3460 
     85 H85        27.2454  -42.2309  -59.5592 H         1 UNK         0.3460 
     86 H86        28.2127  -43.0450  -57.4579 H         1 UNK         0.2989 
     87 H87        25.4573  -45.4901  -57.2308 H         1 UNK         0.0559 
     88 H88        24.7887  -44.1133  -59.2226 H         1 UNK         0.0848 
     89 H89        24.3336  -45.7712  -59.5228 H         1 UNK         0.0848 
     90 H90        25.7766  -45.1069  -60.2812 H         1 UNK         0.0848 
     91 H91        27.3205  -47.1088  -58.7275 H         1 UNK         0.3144 
     92 H92        25.4370  -49.9770  -58.8313 H         1 UNK         0.0727 
     93 H93        27.7473  -50.3944  -59.6118 H         1 UNK         0.0790 
     94 H94        28.3071  -48.8856  -58.9110 H         1 UNK         0.0790 
     95 H95        27.1680  -48.8723  -60.2608 H         1 UNK         0.0790 
     96 H96        27.2670  -49.5604  -56.5135 H         1 UNK         0.3215 
     97 H97        26.1218  -52.3127  -54.8695 H         1 UNK         0.0863 
     98 H98        28.2346  -53.6309  -54.9595 H         1 UNK         0.0808 
     99 H99        28.6833  -52.8438  -56.4719 H         1 UNK         0.0808 
    100 H100       27.2809  -53.9043  -56.4078 H         1 UNK         0.0808 
    101 H101       28.7441  -51.1038  -54.7510 H         1 UNK         0.3118 
    102 H102       27.7191  -48.1220  -53.1153 H         1 UNK         0.0546 
    103 H103       29.2748  -50.5414  -52.0588 H         1 UNK         0.0828 
    104 H104       27.9337  -49.7455  -51.2493 H         1 UNK         0.0828 
    105 H105       29.4484  -48.8847  -51.4814 H         1 UNK         0.0828 
    106 H106       30.3099  -48.9623  -53.7935 H         1 UNK         0.3005 
    107 H107       30.3592  -47.7776  -57.1868 H         1 UNK         0.1257 
    108 H108       31.6214  -46.8951  -54.5347 H         1 UNK         0.0775 
    109 H109       30.6245  -45.9116  -55.5524 H         1 UNK         0.0775 
    110 H110       33.0939  -44.3037  -57.8892 H         1 UNK         0.0840 
    111 H111       31.4327  -44.8400  -57.8843 H         1 UNK         0.0840 
    112 H112       32.1501  -49.2139  -55.3790 H         1 UNK         0.2987 
    113 H113       31.4963  -52.4080  -56.7685 H         1 UNK         0.0785 
    114 H114       33.0463  -51.4691  -58.4919 H         1 UNK         0.0798 
    115 H115       33.9243  -52.4188  -57.3052 H         1 UNK         0.0798 
    116 H116       33.9735  -50.6558  -57.2392 H         1 UNK         0.0798 
    117 H117       33.4887  -51.4872  -54.9415 H         1 UNK         0.3079 
    118 H118       31.4972  -51.4776  -51.9974 H         1 UNK         0.0794 
    119 H119       33.2113  -53.0996  -51.2508 H         1 UNK         0.0786 
    120 H120       33.6865  -53.4179  -52.9197 H         1 UNK         0.0786 
    121 H121       32.0891  -53.8819  -52.3501 H         1 UNK         0.0786 
    122 H122       34.2638  -51.0400  -52.3129 H         1 UNK         0.3032 
    123 H123       34.9438  -48.7957  -51.7782 H         1 UNK         0.1094 
    124 H124       34.7132  -48.3442  -54.8236 H         1 UNK         0.0794 
    125 H125       36.1317  -47.9674  -53.8505 H         1 UNK         0.0794 
    126 H126       35.6281  -49.6354  -54.0530 H         1 UNK         0.0794 
    127 H127       33.0050  -46.9461  -52.9183 H         1 UNK         0.3016 
@<TRIPOS>BOND
     1    1    2 1    
     2    1   67 1    
     3    1   68 1    
     4    1   69 1    
     5    2    3 2    
     6    2    4 am   BACKBONE|DICT|INTERRES
     7    4    5 1    
     8    4   70 1    
     9    5    6 1    
    10    5   65 1    
    11    5   71 1    
    12    6    7 1    
    13    6   72 1    
    14    6   73 1    
    15    7    8 1    
    16    8    9 1    
    17    8   74 1    
    18    8   75 1    
    19    9   10 ar   
    20    9   14 ar   
    21   10   11 ar   
    22   10   76 1    
    23   11   12 ar   
    24   11   48 1    
    25   12   13 ar   
    26   12   77 1    
    27   13   14 ar   
    28   13   15 1    
    29   14   78 1    
    30   15   16 1    
    31   15   79 1    
    32   15   80 1    
    33   16   17 1    
    34   17   18 1    
    35   17   81 1    
    36   17   82 1    
    37   18   19 1    
    38   18   22 1    
    39   18   83 1    
    40   19   20 am   BACKBONE|DICT|INTERRES
    41   19   21 2    
    42   20   84 1    
    43   20   85 1    
    44   22   23 am   BACKBONE|DICT|INTERRES
    45   22   86 1    
    46   23   24 2    
    47   23   25 1    
    48   25   26 1    
    49   25   27 1    
    50   25   87 1    
    51   26   88 1    
    52   26   89 1    
    53   26   90 1    
    54   27   28 am   BACKBONE|DICT|INTERRES
    55   27   91 1    
    56   28   29 2    
    57   28   30 1    
    58   30   31 1    
    59   30   32 1    
    60   30   92 1    
    61   31   93 1    
    62   31   94 1    
    63   31   95 1    
    64   32   33 am   BACKBONE|DICT|INTERRES
    65   32   96 1    
    66   33   34 2    
    67   33   35 1    
    68   35   36 1    
    69   35   37 1    
    70   35   97 1    
    71   36   98 1    
    72   36   99 1    
    73   36  100 1    
    74   37   38 am   BACKBONE|DICT|INTERRES
    75   37  101 1    
    76   38   39 2    
    77   38   40 1    
    78   40   41 1    
    79   40   42 1    
    80   40  102 1    
    81   41  103 1    
    82   41  104 1    
    83   41  105 1    
    84   42   43 am   BACKBONE|DICT|INTERRES
    85   42  106 1    
    86   43   44 2    
    87   43   45 1    
    88   45   46 1    
    89   45   49 1    
    90   45  107 1    
    91   46   47 1    
    92   46  108 1    
    93   46  109 1    
    94   47   48 1    
    95   48  110 1    
    96   48  111 1    
    97   49   50 am   BACKBONE|DICT|INTERRES
    98   49  112 1    
    99   50   51 2    
   100   50   52 1    
   101   52   53 1    
   102   52   54 1    
   103   52  113 1    
   104   53  114 1    
   105   53  115 1    
   106   53  116 1    
   107   54   55 am   BACKBONE|DICT|INTERRES
   108   54  117 1    
   109   55   56 2    
   110   55   57 1    
   111   57   58 1    
   112   57   59 1    
   113   57  118 1    
   114   58  119 1    
   115   58  120 1    
   116   58  121 1    
   117   59   60 am   BACKBONE|DICT|INTERRES
   118   59  122 1    
   119   60   61 2    
   120   60   62 1    
   121   62   63 1    
   122   62   64 1    
   123   62  123 1    
   124   63  124 1    
   125   63  125 1    
   126   63  126 1    
   127   64   65 am   BACKBONE|DICT|INTERRES
   128   64  127 1    
   129   65   66 2    
@<TRIPOS>SUBSTRUCTURE
     1 UNK         1 GROUP             0       ****    0 ROOT    
