@<TRIPOS>MOLECULE
3R134
127   129    1
SMALL
USER_CHARGES


@<TRIPOS>ATOM
      1 CA         35.8913  -48.3127  -55.8447 C.3       0 UNK        -0.1968 
      2 C          35.0471  -47.6585  -54.7624 C.2       0 UNK         0.4852 
      3 O          34.1070  -48.2856  -54.2683 O.2       0 UNK        -0.5359 
      4 N          35.3676  -46.4070  -54.3986 N.am      1 UNK        -0.4300 
      5 CA         34.6831  -45.6310  -53.3586 C.3       1 UNK         0.0863 
      6 C6         35.2058  -44.1767  -53.2466 C.3       11 UNK        -0.0953 
      7 S7         34.9075  -43.1796  -54.7483 S.3       11 UNK        -0.2369 
      8 C8         33.5967  -42.0245  -54.2126 C.3       11 UNK         0.0226 
      9 C9         32.2072  -42.5960  -54.4588 C.ar      11 UNK        -0.0699 
     10 C10        31.6790  -43.5559  -53.5910 C.ar      11 UNK        -0.0804 
     11 C11        30.4486  -44.1582  -53.8667 C.ar      11 UNK        -0.0871 
     12 C12        29.7058  -43.7343  -54.9709 C.ar      11 UNK        -0.1008 
     13 C13        30.2098  -42.7587  -55.8326 C.ar      11 UNK        -0.0735 
     14 C14        31.4632  -42.1930  -55.5747 C.ar      11 UNK        -0.0945 
     15 C15        29.4139  -42.3762  -57.0696 C.3       11 UNK         0.0169 
     16 S16        27.9834  -41.3396  -56.6400 S.3       11 UNK        -0.2669 
     17 C17        26.9293  -41.5660  -58.1140 C.3       11 UNK        -0.0850 
     18 CA         25.6098  -42.3205  -57.7939 C.3       10 UNK         0.0855 
     19 C          24.6428  -42.3046  -59.0162 C.2       10 UNK         0.5543 
     20 N          24.1931  -43.4386  -59.5406 N.am      10 UNK        -0.7343 
     21 O          24.2853  -41.2318  -59.4967 O.2       10 UNK        -0.5027 
     22 N          25.8536  -43.6591  -57.2253 N.am      10 UNK        -0.4495 
     23 C          24.9855  -44.3209  -56.4483 C.2       10 UNK         0.4903 
     24 O          23.9196  -43.8404  -56.0584 O.2       10 UNK        -0.4860 
     25 CA         25.3698  -45.7618  -56.0443 C.3       9 UNK         0.0227 
     26 CB         24.1577  -46.5842  -55.5600 C.3       9 UNK        -0.1964 
     27 N          26.0994  -46.5107  -57.0770 N.am      9 UNK        -0.4231 
     28 C          25.7303  -46.7266  -58.3501 C.2       9 UNK         0.5014 
     29 O          24.7174  -46.2541  -58.8667 O.2       9 UNK        -0.5270 
     30 CA         26.6569  -47.6138  -59.1922 C.3       8 UNK         0.0284 
     31 CB         27.9491  -46.8603  -59.5541 C.3       8 UNK        -0.1977 
     32 N          26.9893  -48.8483  -58.4784 N.am      8 UNK        -0.4342 
     33 C          26.3937  -50.0335  -58.6732 C.2       8 UNK         0.5039 
     34 O          25.5174  -50.2283  -59.5167 O.2       8 UNK        -0.5547 
     35 CA         26.8523  -51.2140  -57.7932 C.3       7 UNK         0.0281 
     36 CB         27.8940  -52.0637  -58.5387 C.3       7 UNK        -0.1963 
     37 N          27.4089  -50.7957  -56.5047 N.am      7 UNK        -0.4444 
     38 C          26.6835  -50.2911  -55.4946 C.2       7 UNK         0.5104 
     39 O          25.4541  -50.2322  -55.5023 O.2       7 UNK        -0.5100 
     40 CA         27.4513  -49.7240  -54.2830 C.3       6 UNK         0.0396 
     41 CB         27.4617  -50.7392  -53.1300 C.3       6 UNK        -0.1801 
     42 N          28.8307  -49.3241  -54.5775 N.am      6 UNK        -0.4747 
     43 C          29.2038  -48.4215  -55.4969 C.2       6 UNK         0.5012 
     44 O          28.4066  -47.7763  -56.1784 O.2       6 UNK        -0.5003 
     45 CA         30.7136  -48.2267  -55.7391 C.3       5 UNK         0.0782 
     46 C46        31.1982  -46.9023  -55.1169 C.3       11 UNK        -0.0868 
     47 S47        31.0285  -46.8078  -53.2902 S.3       11 UNK        -0.2515 
     48 C48        29.9658  -45.3423  -53.0427 C.3       11 UNK         0.0199 
     49 N          31.5648  -49.3587  -55.3557 N.am      5 UNK        -0.4607 
     50 C          31.4367  -50.6203  -55.7920 C.2       4 UNK         0.5031 
     51 O          30.5399  -50.9875  -56.5535 O.2       4 UNK        -0.5119 
     52 CA         32.4655  -51.6560  -55.3025 C.3       4 UNK         0.0263 
     53 CB         33.4623  -51.9834  -56.4261 C.3       4 UNK        -0.1967 
     54 N          33.2156  -51.2624  -54.1055 N.am      4 UNK        -0.4237 
     55 C          32.7031  -51.0715  -52.8823 C.2       3 UNK         0.4908 
     56 O          31.5034  -51.1702  -52.6199 O.2       3 UNK        -0.5102 
     57 CA         33.6880  -50.7059  -51.7627 C.3       3 UNK         0.0241 
     58 CB         35.1691  -50.9975  -52.0888 C.3       3 UNK        -0.1971 
     59 N          33.5269  -49.2909  -51.4473 N.am      3 UNK        -0.4139 
     60 C          33.5863  -48.7593  -50.2195 C.2       2 UNK         0.5016 
     61 O          33.7910  -49.4234  -49.2013 O.2       2 UNK        -0.5319 
     62 CA         33.3618  -47.2364  -50.0968 C.3       2 UNK         0.0286 
     63 CB         34.1335  -46.6086  -48.9158 C.3       2 UNK        -0.1963 
     64 N          33.6043  -46.5010  -51.3452 N.am      2 UNK        -0.4790 
     65 C          34.7680  -46.3396  -51.9909 C.2       1 UNK         0.5024 
     66 O          35.8611  -46.7224  -51.5686 O.2       1 UNK        -0.4888 
     67 H67        35.2613  -48.5990  -56.6863 H         1 UNK         0.0892 
     68 H68        36.6700  -47.6458  -56.2139 H         1 UNK         0.0892 
     69 H69        36.3687  -49.2108  -55.4542 H         1 UNK         0.0892 
     70 H70        36.1527  -45.9468  -54.8355 H         1 UNK         0.3107 
     71 H71        33.6366  -45.5865  -53.6573 H         1 UNK         0.0773 
     72 H72        36.2796  -44.1762  -53.0504 H         1 UNK         0.0680 
     73 H73        34.7510  -43.6715  -52.3927 H         1 UNK         0.0680 
     74 H74        33.7169  -41.0919  -54.7659 H         1 UNK         0.0650 
     75 H75        33.7188  -41.7638  -53.1605 H         1 UNK         0.0650 
     76 H76        32.2529  -43.8790  -52.7347 H         1 UNK         0.1397 
     77 H77        28.7547  -44.1994  -55.1929 H         1 UNK         0.1363 
     78 H78        31.8689  -41.4556  -56.2539 H         1 UNK         0.1355 
     79 H79        30.0399  -41.8462  -57.7893 H         1 UNK         0.0707 
     80 H80        29.0761  -43.2880  -57.5648 H         1 UNK         0.0707 
     81 H81        26.7111  -40.5701  -58.5048 H         1 UNK         0.1034 
     82 H82        27.4821  -42.0778  -58.9037 H         1 UNK         0.1034 
     83 H83        25.0992  -41.7356  -57.0261 H         1 UNK         0.0482 
     84 H84        24.4519  -44.3420  -59.1563 H         1 UNK         0.3460 
     85 H85        23.5657  -43.3969  -60.3276 H         1 UNK         0.3460 
     86 H86        26.6995  -44.1250  -57.5140 H         1 UNK         0.2989 
     87 H87        26.0577  -45.6637  -55.2033 H         1 UNK         0.0559 
     88 H88        23.4072  -46.6925  -56.3438 H         1 UNK         0.0848 
     89 H89        23.6731  -46.1093  -54.7061 H         1 UNK         0.0848 
     90 H90        24.4575  -47.5835  -55.2442 H         1 UNK         0.0848 
     91 H91        26.9714  -46.9346  -56.7605 H         1 UNK         0.3144 
     92 H92        26.1378  -47.8491  -60.1239 H         1 UNK         0.0727 
     93 H93        28.5335  -46.5948  -58.6724 H         1 UNK         0.0790 
     94 H94        27.7241  -45.9356  -60.0874 H         1 UNK         0.0790 
     95 H95        28.5845  -47.4611  -60.2050 H         1 UNK         0.0790 
     96 H96        27.6548  -48.7615  -57.7184 H         1 UNK         0.3215 
     97 H97        25.9772  -51.8387  -57.6002 H         1 UNK         0.0863 
     98 H98        28.1830  -52.9389  -57.9567 H         1 UNK         0.0808 
     99 H99        28.7982  -51.4937  -58.7569 H         1 UNK         0.0808 
    100 H100       27.4971  -52.4231  -59.4892 H         1 UNK         0.0808 
    101 H101       28.4194  -50.8272  -56.4107 H         1 UNK         0.3118 
    102 H102       26.9174  -48.8312  -53.9510 H         1 UNK         0.0546 
    103 H103       28.0129  -51.6429  -53.3939 H         1 UNK         0.0828 
    104 H104       26.4474  -51.0406  -52.8644 H         1 UNK         0.0828 
    105 H105       27.9181  -50.3181  -52.2340 H         1 UNK         0.0828 
    106 H106       29.5626  -49.7986  -54.0651 H         1 UNK         0.3005 
    107 H107       30.8230  -48.1331  -56.8218 H         1 UNK         0.1257 
    108 H108       30.6644  -46.0872  -55.6001 H         1 UNK         0.0775 
    109 H109       32.2440  -46.7330  -55.3716 H         1 UNK         0.0775 
    110 H110       28.9390  -45.6054  -53.3028 H         1 UNK         0.0840 
    111 H111       29.9575  -45.0757  -51.9850 H         1 UNK         0.0840 
    112 H112       32.3603  -49.1285  -54.7673 H         1 UNK         0.2987 
    113 H113       31.9107  -52.5647  -55.0598 H         1 UNK         0.0785 
    114 H114       32.9424  -52.3124  -57.3272 H         1 UNK         0.0798 
    115 H115       34.1401  -52.7863  -56.1356 H         1 UNK         0.0798 
    116 H116       34.0642  -51.1146  -56.6961 H         1 UNK         0.0798 
    117 H117       34.2056  -51.1071  -54.2274 H         1 UNK         0.3079 
    118 H118       33.4031  -51.3123  -50.9002 H         1 UNK         0.0794 
    119 H119       35.3140  -52.0372  -52.3857 H         1 UNK         0.0786 
    120 H120       35.7974  -50.8268  -51.2143 H         1 UNK         0.0786 
    121 H121       35.5481  -50.3596  -52.8882 H         1 UNK         0.0786 
    122 H122       33.3724  -48.6807  -52.2428 H         1 UNK         0.3032 
    123 H123       32.2974  -47.1195  -49.8857 H         1 UNK         0.1094 
    124 H124       33.9580  -45.5348  -48.8520 H         1 UNK         0.0794 
    125 H125       35.2084  -46.7701  -48.9997 H         1 UNK         0.0794 
    126 H126       33.8162  -47.0431  -47.9670 H         1 UNK         0.0794 
    127 H127       32.7634  -46.1950  -51.8194 H         1 UNK         0.3016 
@<TRIPOS>BOND
     1    1    2 1    
     2    1   67 1    
     3    1   68 1    
     4    1   69 1    
     5    2    3 2    
     6    2    4 am   BACKBONE|DICT|INTERRES
     7    4    5 1    
     8    4   70 1    
     9    5    6 1    
    10    5   65 1    
    11    5   71 1    
    12    6    7 1    
    13    6   72 1    
    14    6   73 1    
    15    7    8 1    
    16    8    9 1    
    17    8   74 1    
    18    8   75 1    
    19    9   10 ar   
    20    9   14 ar   
    21   10   11 ar   
    22   10   76 1    
    23   11   12 ar   
    24   11   48 1    
    25   12   13 ar   
    26   12   77 1    
    27   13   14 ar   
    28   13   15 1    
    29   14   78 1    
    30   15   16 1    
    31   15   79 1    
    32   15   80 1    
    33   16   17 1    
    34   17   18 1    
    35   17   81 1    
    36   17   82 1    
    37   18   19 1    
    38   18   22 1    
    39   18   83 1    
    40   19   20 am   BACKBONE|DICT|INTERRES
    41   19   21 2    
    42   20   84 1    
    43   20   85 1    
    44   22   23 am   BACKBONE|DICT|INTERRES
    45   22   86 1    
    46   23   24 2    
    47   23   25 1    
    48   25   26 1    
    49   25   27 1    
    50   25   87 1    
    51   26   88 1    
    52   26   89 1    
    53   26   90 1    
    54   27   28 am   BACKBONE|DICT|INTERRES
    55   27   91 1    
    56   28   29 2    
    57   28   30 1    
    58   30   31 1    
    59   30   32 1    
    60   30   92 1    
    61   31   93 1    
    62   31   94 1    
    63   31   95 1    
    64   32   33 am   BACKBONE|DICT|INTERRES
    65   32   96 1    
    66   33   34 2    
    67   33   35 1    
    68   35   36 1    
    69   35   37 1    
    70   35   97 1    
    71   36   98 1    
    72   36   99 1    
    73   36  100 1    
    74   37   38 am   BACKBONE|DICT|INTERRES
    75   37  101 1    
    76   38   39 2    
    77   38   40 1    
    78   40   41 1    
    79   40   42 1    
    80   40  102 1    
    81   41  103 1    
    82   41  104 1    
    83   41  105 1    
    84   42   43 am   BACKBONE|DICT|INTERRES
    85   42  106 1    
    86   43   44 2    
    87   43   45 1    
    88   45   46 1    
    89   45   49 1    
    90   45  107 1    
    91   46   47 1    
    92   46  108 1    
    93   46  109 1    
    94   47   48 1    
    95   48  110 1    
    96   48  111 1    
    97   49   50 am   BACKBONE|DICT|INTERRES
    98   49  112 1    
    99   50   51 2    
   100   50   52 1    
   101   52   53 1    
   102   52   54 1    
   103   52  113 1    
   104   53  114 1    
   105   53  115 1    
   106   53  116 1    
   107   54   55 am   BACKBONE|DICT|INTERRES
   108   54  117 1    
   109   55   56 2    
   110   55   57 1    
   111   57   58 1    
   112   57   59 1    
   113   57  118 1    
   114   58  119 1    
   115   58  120 1    
   116   58  121 1    
   117   59   60 am   BACKBONE|DICT|INTERRES
   118   59  122 1    
   119   60   61 2    
   120   60   62 1    
   121   62   63 1    
   122   62   64 1    
   123   62  123 1    
   124   63  124 1    
   125   63  125 1    
   126   63  126 1    
   127   64   65 am   BACKBONE|DICT|INTERRES
   128   64  127 1    
   129   65   66 2    
@<TRIPOS>SUBSTRUCTURE
     1 UNK         1 GROUP             0       ****    0 ROOT    
