@<TRIPOS>MOLECULE
3R134
127   129    1
SMALL
USER_CHARGES


@<TRIPOS>ATOM
      1 CA         29.8437  -45.7322  -50.8835 C.3       0 UNK        -0.1968 
      2 C          30.3093  -45.3155  -52.2766 C.2       0 UNK         0.4852 
      3 O          29.4868  -45.2604  -53.1847 O.2       0 UNK        -0.5359 
      4 N          31.5919  -44.9921  -52.4976 N.am      1 UNK        -0.4300 
      5 CA         32.6720  -44.9391  -51.5072 C.3       1 UNK         0.0863 
      6 C6         33.8813  -44.1120  -52.0143 C.3       11 UNK        -0.0953 
      7 S7         33.5002  -42.3237  -52.0064 S.3       11 UNK        -0.2369 
      8 C8         33.8027  -41.7999  -53.7278 C.3       11 UNK         0.0226 
      9 C9         32.8192  -42.4111  -54.7167 C.ar      11 UNK        -0.0699 
     10 C10        33.2901  -43.1910  -55.7766 C.ar      11 UNK        -0.0804 
     11 C11        32.3940  -43.8042  -56.6556 C.ar      11 UNK        -0.0871 
     12 C12        31.0198  -43.6187  -56.4818 C.ar      11 UNK        -0.1008 
     13 C13        30.5358  -42.8323  -55.4343 C.ar      11 UNK        -0.0735 
     14 C14        31.4416  -42.2148  -54.5658 C.ar      11 UNK        -0.0945 
     15 C15        29.0388  -42.7362  -55.1772 C.3       11 UNK         0.0169 
     16 S16        28.2263  -41.4169  -56.1334 S.3       11 UNK        -0.2669 
     17 C17        27.9488  -42.1818  -57.7710 C.3       11 UNK        -0.0850 
     18 CA         26.5760  -42.9054  -57.8765 C.3       10 UNK         0.0855 
     19 C          26.1459  -43.1404  -59.3567 C.2       10 UNK         0.5543 
     20 N          25.6802  -44.3213  -59.7476 N.am      10 UNK        -0.7343 
     21 O          26.2214  -42.2241  -60.1716 O.2       10 UNK        -0.5027 
     22 N          26.5522  -44.1310  -57.0607 N.am      10 UNK        -0.4495 
     23 C          25.4972  -44.5833  -56.3740 C.2       10 UNK         0.4903 
     24 O          24.4249  -43.9824  -56.2864 O.2       10 UNK        -0.4860 
     25 CA         25.6805  -45.9515  -55.6854 C.3       9 UNK         0.0227 
     26 CB         24.3575  -46.5361  -55.1484 C.3       9 UNK        -0.1964 
     27 N          26.3689  -46.9399  -56.5269 N.am      9 UNK        -0.4231 
     28 C          26.0048  -47.3740  -57.7436 C.2       9 UNK         0.5014 
     29 O          25.0447  -46.9310  -58.3751 O.2       9 UNK        -0.5270 
     30 CA         26.8669  -48.4804  -58.3772 C.3       8 UNK         0.0284 
     31 CB         28.0617  -47.8674  -59.1260 C.3       8 UNK        -0.1977 
     32 N          27.3415  -49.4735  -57.4074 N.am      8 UNK        -0.4342 
     33 C          26.5515  -50.3490  -56.7662 C.2       8 UNK         0.5039 
     34 O          25.3415  -50.4563  -56.9703 O.2       8 UNK        -0.5547 
     35 CA         27.2145  -51.2525  -55.7097 C.3       7 UNK         0.0281 
     36 CB         27.9064  -52.4562  -56.3691 C.3       7 UNK        -0.1963 
     37 N          28.1715  -50.5274  -54.8718 N.am      7 UNK        -0.4444 
     38 C          27.8391  -49.5665  -53.9978 C.2       7 UNK         0.5104 
     39 O          26.6800  -49.2606  -53.7190 O.2       7 UNK        -0.5100 
     40 CA         28.9975  -48.7841  -53.3563 C.3       6 UNK         0.0396 
     41 CB         29.4896  -49.4690  -52.0717 C.3       6 UNK        -0.1801 
     42 N          30.1178  -48.5802  -54.2800 N.am      6 UNK        -0.4747 
     43 C          30.0513  -47.8259  -55.3880 C.2       6 UNK         0.5012 
     44 O          29.0465  -47.2104  -55.7413 O.2       6 UNK        -0.5003 
     45 CA         31.2996  -47.7961  -56.2867 C.3       5 UNK         0.0782 
     46 C46        32.3175  -46.7612  -55.7630 C.3       11 UNK        -0.0868 
     47 S47        33.5704  -46.3028  -57.0097 S.3       11 UNK        -0.2515 
     48 C48        32.8982  -44.7616  -57.7254 C.3       11 UNK         0.0199 
     49 N          31.8767  -49.1344  -56.4256 N.am      5 UNK        -0.4607 
     50 C          31.2784  -50.1373  -57.0821 C.2       4 UNK         0.5031 
     51 O          30.2158  -50.0107  -57.6899 O.2       4 UNK        -0.5119 
     52 CA         31.9423  -51.5229  -57.0159 C.3       4 UNK         0.0263 
     53 CB         32.9294  -51.6995  -58.1800 C.3       4 UNK        -0.1967 
     54 N          32.6288  -51.7870  -55.7484 N.am      4 UNK        -0.4237 
     55 C          32.0409  -51.8320  -54.5439 C.2       3 UNK         0.4908 
     56 O          30.8331  -51.6645  -54.3719 O.2       3 UNK        -0.5102 
     57 CA         32.9474  -52.0885  -53.3205 C.3       3 UNK         0.0241 
     58 CB         34.3851  -52.5209  -53.6908 C.3       3 UNK        -0.1971 
     59 N          33.0060  -50.9590  -52.3793 N.am      3 UNK        -0.4139 
     60 C          33.2505  -49.6731  -52.6723 C.2       2 UNK         0.5016 
     61 O          33.3289  -49.2286  -53.8174 O.2       2 UNK        -0.5319 
     62 CA         33.5063  -48.7322  -51.4887 C.3       2 UNK         0.0286 
     63 CB         34.9886  -48.8347  -51.0696 C.3       2 UNK        -0.1963 
     64 N          33.1656  -47.3507  -51.8527 N.am      2 UNK        -0.4790 
     65 C          33.0959  -46.3299  -50.9850 C.2       1 UNK         0.5024 
     66 O          33.3118  -46.4580  -49.7794 O.2       1 UNK        -0.4888 
     67 H67        28.7621  -45.8653  -50.8719 H         1 UNK         0.0892 
     68 H68        30.2922  -46.6776  -50.5835 H         1 UNK         0.0892 
     69 H69        30.0871  -44.9730  -50.1414 H         1 UNK         0.0892 
     70 H70        31.8407  -44.6629  -53.4193 H         1 UNK         0.3107 
     71 H71        32.2793  -44.4126  -50.6350 H         1 UNK         0.0773 
     72 H72        34.1896  -44.4353  -53.0101 H         1 UNK         0.0680 
     73 H73        34.7489  -44.2515  -51.3662 H         1 UNK         0.0680 
     74 H74        34.8323  -42.0443  -53.9938 H         1 UNK         0.0650 
     75 H75        33.7213  -40.7136  -53.7810 H         1 UNK         0.0650 
     76 H76        34.3518  -43.3607  -55.8950 H         1 UNK         0.1397 
     77 H77        30.3269  -44.1414  -57.1250 H         1 UNK         0.1363 
     78 H78        31.0741  -41.6202  -53.7405 H         1 UNK         0.1355 
     79 H79        28.5677  -43.6987  -55.3747 H         1 UNK         0.0707 
     80 H80        28.8648  -42.5434  -54.1175 H         1 UNK         0.0707 
     81 H81        28.7658  -42.8516  -58.0329 H         1 UNK         0.1034 
     82 H82        28.0054  -41.3647  -58.4927 H         1 UNK         0.1034 
     83 H83        25.8259  -42.2168  -57.4831 H         1 UNK         0.0482 
     84 H84        25.5453  -45.0819  -59.0919 H         1 UNK         0.3460 
     85 H85        25.4036  -44.4404  -60.7090 H         1 UNK         0.3460 
     86 H86        27.3770  -44.7106  -57.1010 H         1 UNK         0.2989 
     87 H87        26.3356  -45.7769  -54.8303 H         1 UNK         0.0559 
     88 H88        23.6375  -46.7077  -55.9494 H         1 UNK         0.0848 
     89 H89        23.8925  -45.8604  -54.4296 H         1 UNK         0.0848 
     90 H90        24.5242  -47.4855  -54.6389 H         1 UNK         0.0848 
     91 H91        27.2498  -47.2866  -56.1497 H         1 UNK         0.3144 
     92 H92        26.2448  -49.0024  -59.1073 H         1 UNK         0.0727 
     93 H93        28.6403  -48.6333  -59.6430 H         1 UNK         0.0790 
     94 H94        28.7352  -47.3379  -58.4525 H         1 UNK         0.0790 
     95 H95        27.7252  -47.1526  -59.8784 H         1 UNK         0.0790 
     96 H96        28.3436  -49.5111  -57.2447 H         1 UNK         0.3215 
     97 H97        26.4256  -51.6329  -55.0571 H         1 UNK         0.0863 
     98 H98        28.3596  -53.1114  -55.6247 H         1 UNK         0.0808 
     99 H99        28.6875  -52.1464  -57.0626 H         1 UNK         0.0808 
    100 H100       27.1895  -53.0530  -56.9344 H         1 UNK         0.0808 
    101 H101       29.1532  -50.7731  -54.9607 H         1 UNK         0.3118 
    102 H102       28.6096  -47.8012  -53.0833 H         1 UNK         0.0546 
    103 H103       29.8626  -50.4752  -52.2612 H         1 UNK         0.0828 
    104 H104       28.6791  -49.5568  -51.3471 H         1 UNK         0.0828 
    105 H105       30.2869  -48.8991  -51.5968 H         1 UNK         0.0828 
    106 H106       30.9660  -49.1032  -54.1057 H         1 UNK         0.3005 
    107 H107       30.9638  -47.4709  -57.2741 H         1 UNK         0.1257 
    108 H108       31.8047  -45.8810  -55.3847 H         1 UNK         0.0775 
    109 H109       32.8530  -47.1360  -54.8965 H         1 UNK         0.0775 
    110 H110       33.6747  -44.2730  -58.3157 H         1 UNK         0.0840 
    111 H111       32.0994  -45.0167  -58.4235 H         1 UNK         0.0840 
    112 H112       32.7138  -49.3193  -55.8850 H         1 UNK         0.2987 
    113 H113       31.1526  -52.2692  -57.1224 H         1 UNK         0.0785 
    114 H114       33.3418  -52.7084  -58.2025 H         1 UNK         0.0798 
    115 H115       33.7609  -50.9964  -58.1155 H         1 UNK         0.0798 
    116 H116       32.4352  -51.5324  -59.1383 H         1 UNK         0.0798 
    117 H117       33.6293  -51.9151  -55.7921 H         1 UNK         0.3079 
    118 H118       32.4849  -52.9162  -52.7806 H         1 UNK         0.0794 
    119 H119       34.3846  -53.3952  -54.3434 H         1 UNK         0.0786 
    120 H120       34.9486  -52.7964  -52.7991 H         1 UNK         0.0786 
    121 H121       34.9389  -51.7248  -54.1905 H         1 UNK         0.0786 
    122 H122       32.9254  -51.2146  -51.4049 H         1 UNK         0.3032 
    123 H123       32.8687  -49.0401  -50.6568 H         1 UNK         0.1094 
    124 H124       35.6513  -48.4710  -51.8559 H         1 UNK         0.0794 
    125 H125       35.1985  -48.2633  -50.1658 H         1 UNK         0.0794 
    126 H126       35.2700  -49.8677  -50.8601 H         1 UNK         0.0794 
    127 H127       32.9725  -47.2049  -52.8347 H         1 UNK         0.3016 
@<TRIPOS>BOND
     1    1    2 1    
     2    1   67 1    
     3    1   68 1    
     4    1   69 1    
     5    2    3 2    
     6    2    4 am   BACKBONE|DICT|INTERRES
     7    4    5 1    
     8    4   70 1    
     9    5    6 1    
    10    5   65 1    
    11    5   71 1    
    12    6    7 1    
    13    6   72 1    
    14    6   73 1    
    15    7    8 1    
    16    8    9 1    
    17    8   74 1    
    18    8   75 1    
    19    9   10 ar   
    20    9   14 ar   
    21   10   11 ar   
    22   10   76 1    
    23   11   12 ar   
    24   11   48 1    
    25   12   13 ar   
    26   12   77 1    
    27   13   14 ar   
    28   13   15 1    
    29   14   78 1    
    30   15   16 1    
    31   15   79 1    
    32   15   80 1    
    33   16   17 1    
    34   17   18 1    
    35   17   81 1    
    36   17   82 1    
    37   18   19 1    
    38   18   22 1    
    39   18   83 1    
    40   19   20 am   BACKBONE|DICT|INTERRES
    41   19   21 2    
    42   20   84 1    
    43   20   85 1    
    44   22   23 am   BACKBONE|DICT|INTERRES
    45   22   86 1    
    46   23   24 2    
    47   23   25 1    
    48   25   26 1    
    49   25   27 1    
    50   25   87 1    
    51   26   88 1    
    52   26   89 1    
    53   26   90 1    
    54   27   28 am   BACKBONE|DICT|INTERRES
    55   27   91 1    
    56   28   29 2    
    57   28   30 1    
    58   30   31 1    
    59   30   32 1    
    60   30   92 1    
    61   31   93 1    
    62   31   94 1    
    63   31   95 1    
    64   32   33 am   BACKBONE|DICT|INTERRES
    65   32   96 1    
    66   33   34 2    
    67   33   35 1    
    68   35   36 1    
    69   35   37 1    
    70   35   97 1    
    71   36   98 1    
    72   36   99 1    
    73   36  100 1    
    74   37   38 am   BACKBONE|DICT|INTERRES
    75   37  101 1    
    76   38   39 2    
    77   38   40 1    
    78   40   41 1    
    79   40   42 1    
    80   40  102 1    
    81   41  103 1    
    82   41  104 1    
    83   41  105 1    
    84   42   43 am   BACKBONE|DICT|INTERRES
    85   42  106 1    
    86   43   44 2    
    87   43   45 1    
    88   45   46 1    
    89   45   49 1    
    90   45  107 1    
    91   46   47 1    
    92   46  108 1    
    93   46  109 1    
    94   47   48 1    
    95   48  110 1    
    96   48  111 1    
    97   49   50 am   BACKBONE|DICT|INTERRES
    98   49  112 1    
    99   50   51 2    
   100   50   52 1    
   101   52   53 1    
   102   52   54 1    
   103   52  113 1    
   104   53  114 1    
   105   53  115 1    
   106   53  116 1    
   107   54   55 am   BACKBONE|DICT|INTERRES
   108   54  117 1    
   109   55   56 2    
   110   55   57 1    
   111   57   58 1    
   112   57   59 1    
   113   57  118 1    
   114   58  119 1    
   115   58  120 1    
   116   58  121 1    
   117   59   60 am   BACKBONE|DICT|INTERRES
   118   59  122 1    
   119   60   61 2    
   120   60   62 1    
   121   62   63 1    
   122   62   64 1    
   123   62  123 1    
   124   63  124 1    
   125   63  125 1    
   126   63  126 1    
   127   64   65 am   BACKBONE|DICT|INTERRES
   128   64  127 1    
   129   65   66 2    
@<TRIPOS>SUBSTRUCTURE
     1 UNK         1 GROUP             0       ****    0 ROOT    
