@<TRIPOS>MOLECULE
3R134
127   129    1
SMALL
USER_CHARGES


@<TRIPOS>ATOM
      1 CA         36.7940  -43.8923  -48.7342 C.3       0 UNK        -0.1968 
      2 C          36.6790  -44.4595  -50.1418 C.2       0 UNK         0.4852 
      3 O          37.6477  -45.0241  -50.6536 O.2       0 UNK        -0.5359 
      4 N          35.5073  -44.3052  -50.7714 N.am      1 UNK        -0.4300 
      5 CA         35.1973  -44.8304  -52.1052 C.3       1 UNK         0.0863 
      6 C6         33.9713  -44.1206  -52.7282 C.3       11 UNK        -0.0953 
      7 S7         34.3679  -42.4009  -53.1902 S.3       11 UNK        -0.2369 
      8 C8         32.7949  -41.5421  -52.8652 C.3       11 UNK         0.0226 
      9 C9         31.6204  -42.1755  -53.6000 C.ar      11 UNK        -0.0699 
     10 C10        30.5409  -42.6895  -52.8750 C.ar      11 UNK        -0.0804 
     11 C11        29.4677  -43.2952  -53.5340 C.ar      11 UNK        -0.0871 
     12 C12        29.4656  -43.3570  -54.9287 C.ar      11 UNK        -0.1008 
     13 C13        30.5461  -42.8654  -55.6650 C.ar      11 UNK        -0.0735 
     14 C14        31.6166  -42.2633  -54.9972 C.ar      11 UNK        -0.0945 
     15 C15        30.5460  -43.0066  -57.1787 C.3       11 UNK         0.0169 
     16 S16        30.5181  -44.7639  -57.6623 S.3       11 UNK        -0.2669 
     17 C17        29.7698  -44.6708  -59.3238 C.3       11 UNK        -0.0850 
     18 CA         28.2371  -44.4060  -59.3147 C.3       10 UNK         0.0855 
     19 C          27.6706  -44.3916  -60.7665 C.2       10 UNK         0.5543 
     20 N          26.7163  -45.2412  -61.1301 N.am      10 UNK        -0.7343 
     21 O          28.1082  -43.5840  -61.5823 O.2       10 UNK        -0.5027 
     22 N          27.5223  -45.2932  -58.3838 N.am      10 UNK        -0.4495 
     23 C          26.2964  -45.0667  -57.8922 C.2       10 UNK         0.4903 
     24 O          25.6641  -44.0264  -58.0805 O.2       10 UNK        -0.4860 
     25 CA         25.6728  -46.2120  -57.0687 C.3       9 UNK         0.0227 
     26 CB         24.1358  -46.1199  -56.9696 C.3       9 UNK        -0.1964 
     27 N          26.0920  -47.5371  -57.5444 N.am      9 UNK        -0.4231 
     28 C          25.9120  -48.0520  -58.7710 C.2       9 UNK         0.5014 
     29 O          25.2700  -47.4926  -59.6611 O.2       9 UNK        -0.5270 
     30 CA         26.6141  -49.3790  -59.0936 C.3       8 UNK         0.0284 
     31 CB         27.8881  -49.1099  -59.9150 C.3       8 UNK        -0.1977 
     32 N          26.9785  -50.1381  -57.8922 N.am      8 UNK        -0.4342 
     33 C          26.4862  -51.3437  -57.5809 C.2       8 UNK         0.5039 
     34 O          25.6277  -51.9279  -58.2438 O.2       8 UNK        -0.5547 
     35 CA         27.0600  -52.0406  -56.3372 C.3       7 UNK         0.0281 
     36 CB         28.3498  -52.7998  -56.6901 C.3       7 UNK        -0.1963 
     37 N          27.3166  -51.1457  -55.2072 N.am      7 UNK        -0.4444 
     38 C          26.3599  -50.6186  -54.4302 C.2       7 UNK         0.5104 
     39 O          25.1548  -50.7188  -54.6609 O.2       7 UNK        -0.5100 
     40 CA         26.8238  -49.8858  -53.1624 C.3       6 UNK         0.0396 
     41 CB         27.2350  -50.8951  -52.0777 C.3       6 UNK        -0.1801 
     42 N          27.9467  -48.9926  -53.4403 N.am      6 UNK        -0.4747 
     43 C          27.8230  -47.6854  -53.7082 C.2       6 UNK         0.5012 
     44 O          26.7455  -47.0897  -53.7107 O.2       6 UNK        -0.5003 
     45 CA         29.1130  -46.9161  -54.0763 C.3       5 UNK         0.0782 
     46 C46        29.8465  -46.3513  -52.8305 C.3       11 UNK        -0.0868 
     47 S47        28.8696  -45.3007  -51.6921 S.3       11 UNK        -0.2515 
     48 C48        28.3237  -43.9133  -52.7443 C.3       11 UNK         0.0199 
     49 N          30.0393  -47.7199  -54.8812 N.am      5 UNK        -0.4607 
     50 C          29.7529  -48.3060  -56.0532 C.2       4 UNK         0.5031 
     51 O          28.6809  -48.1723  -56.6410 O.2       4 UNK        -0.5119 
     52 CA         30.7995  -49.2705  -56.6410 C.3       4 UNK         0.0263 
     53 CB         31.6983  -48.5269  -57.6403 C.3       4 UNK        -0.1967 
     54 N          31.6331  -49.9285  -55.6290 N.am      4 UNK        -0.4237 
     55 C          31.1868  -50.6236  -54.5709 C.2       3 UNK         0.4908 
     56 O          30.0022  -50.9139  -54.3999 O.2       3 UNK        -0.5102 
     57 CA         32.2059  -51.0054  -53.4807 C.3       3 UNK         0.0241 
     58 CB         32.5089  -52.5109  -53.5447 C.3       3 UNK        -0.1971 
     59 N          33.4711  -50.2563  -53.4991 N.am      3 UNK        -0.4139 
     60 C          33.6174  -48.9230  -53.4466 C.2       2 UNK         0.5016 
     61 O          32.6738  -48.1269  -53.4293 O.2       2 UNK        -0.5319 
     62 CA         35.0714  -48.4165  -53.4970 C.3       2 UNK         0.0286 
     63 CB         35.7066  -48.7269  -54.8654 C.3       2 UNK        -0.1963 
     64 N          35.1921  -46.9773  -53.2575 N.am      2 UNK        -0.4790 
     65 C          35.0030  -46.3612  -52.0838 C.2       1 UNK         0.5024 
     66 O          34.6970  -46.9441  -51.0396 O.2       1 UNK        -0.4888 
     67 H67        37.5971  -43.1570  -48.6903 H         1 UNK         0.0892 
     68 H68        35.8726  -43.4068  -48.4131 H         1 UNK         0.0892 
     69 H69        37.0216  -44.6891  -48.0266 H         1 UNK         0.0892 
     70 H70        34.7432  -43.8499  -50.2943 H         1 UNK         0.3107 
     71 H71        36.0623  -44.6344  -52.7436 H         1 UNK         0.0773 
     72 H72        33.6361  -44.6252  -53.6369 H         1 UNK         0.0680 
     73 H73        33.1243  -44.1418  -52.0398 H         1 UNK         0.0680 
     74 H74        32.6207  -41.5278  -51.7882 H         1 UNK         0.0650 
     75 H75        32.8902  -40.5010  -53.1761 H         1 UNK         0.0650 
     76 H76        30.5431  -42.6428  -51.7945 H         1 UNK         0.1397 
     77 H77        28.6385  -43.8191  -55.4504 H         1 UNK         0.1363 
     78 H78        32.4570  -41.8792  -55.5590 H         1 UNK         0.1355 
     79 H79        29.6725  -42.4873  -57.5724 H         1 UNK         0.0707 
     80 H80        31.4204  -42.5277  -57.6217 H         1 UNK         0.0707 
     81 H81        30.2891  -43.8986  -59.8950 H         1 UNK         0.1034 
     82 H82        29.9836  -45.6131  -59.8318 H         1 UNK         0.1034 
     83 H83        28.0880  -43.3897  -58.9481 H         1 UNK         0.0482 
     84 H84        26.3191  -45.9033  -60.4743 H         1 UNK         0.3460 
     85 H85        26.3667  -45.2069  -62.0743 H         1 UNK         0.3460 
     86 H86        27.9831  -46.1624  -58.1548 H         1 UNK         0.2989 
     87 H87        26.0753  -46.1070  -56.0616 H         1 UNK         0.0559 
     88 H88        23.8299  -45.1882  -56.4924 H         1 UNK         0.0848 
     89 H89        23.7285  -46.9363  -56.3732 H         1 UNK         0.0848 
     90 H90        23.6628  -46.1520  -57.9516 H         1 UNK         0.0848 
     91 H91        26.7398  -48.0208  -56.9326 H         1 UNK         0.3144 
     92 H92        25.9272  -49.9532  -59.7187 H         1 UNK         0.0727 
     93 H93        28.6147  -48.5172  -59.3583 H         1 UNK         0.0790 
     94 H94        27.6559  -48.5634  -60.8303 H         1 UNK         0.0790 
     95 H95        28.3720  -50.0412  -60.2094 H         1 UNK         0.0790 
     96 H96        27.6722  -49.7134  -57.2852 H         1 UNK         0.3215 
     97 H97        26.3222  -52.7782  -56.0128 H         1 UNK         0.0863 
     98 H98        28.7191  -53.3709  -55.8380 H         1 UNK         0.0808 
     99 H99        29.1447  -52.1260  -57.0084 H         1 UNK         0.0808 
    100 H100       28.1767  -53.5066  -57.5029 H         1 UNK         0.0808 
    101 H101       28.2890  -51.0375  -54.9220 H         1 UNK         0.3118 
    102 H102       25.9774  -49.3137  -52.7762 H         1 UNK         0.0546 
    103 H103       28.0868  -51.5027  -52.3863 H         1 UNK         0.0828 
    104 H104       26.4146  -51.5764  -51.8480 H         1 UNK         0.0828 
    105 H105       27.5044  -50.3896  -51.1504 H         1 UNK         0.0828 
    106 H106       28.8583  -49.4265  -53.5313 H         1 UNK         0.3005 
    107 H107       28.8051  -46.0822  -54.7071 H         1 UNK         0.1257 
    108 H108       30.2466  -47.1758  -52.2374 H         1 UNK         0.0775 
    109 H109       30.7199  -45.7792  -53.1491 H         1 UNK         0.0775 
    110 H110       27.5339  -44.2657  -53.4098 H         1 UNK         0.0840 
    111 H111       27.8693  -43.1484  -52.1133 H         1 UNK         0.0840 
    112 H112       30.9531  -47.8852  -54.4684 H         1 UNK         0.2987 
    113 H113       30.2597  -50.0497  -57.1807 H         1 UNK         0.0785 
    114 H114       31.1028  -48.0441  -58.4168 H         1 UNK         0.0798 
    115 H115       32.3881  -49.2075  -58.1397 H         1 UNK         0.0798 
    116 H116       32.2856  -47.7476  -57.1522 H         1 UNK         0.0798 
    117 H117       32.6229  -49.7394  -55.6747 H         1 UNK         0.3079 
    118 H118       31.7267  -50.7950  -52.5224 H         1 UNK         0.0794 
    119 H119       33.1298  -52.8283  -52.7066 H         1 UNK         0.0786 
    120 H120       33.0244  -52.7800  -54.4676 H         1 UNK         0.0786 
    121 H121       31.5899  -53.0979  -53.5022 H         1 UNK         0.0786 
    122 H122       34.3083  -50.8207  -53.5309 H         1 UNK         0.3032 
    123 H123       35.6332  -48.9370  -52.7176 H         1 UNK         0.1094 
    124 H124       35.1643  -48.2456  -55.6806 H         1 UNK         0.0794 
    125 H125       36.7418  -48.3868  -54.9073 H         1 UNK         0.0794 
    126 H126       35.7196  -49.7980  -55.0704 H         1 UNK         0.0794 
    127 H127       35.4034  -46.4109  -54.0662 H         1 UNK         0.3016 
@<TRIPOS>BOND
     1    1    2 1    
     2    1   67 1    
     3    1   68 1    
     4    1   69 1    
     5    2    3 2    
     6    2    4 am   BACKBONE|DICT|INTERRES
     7    4    5 1    
     8    4   70 1    
     9    5    6 1    
    10    5   65 1    
    11    5   71 1    
    12    6    7 1    
    13    6   72 1    
    14    6   73 1    
    15    7    8 1    
    16    8    9 1    
    17    8   74 1    
    18    8   75 1    
    19    9   10 ar   
    20    9   14 ar   
    21   10   11 ar   
    22   10   76 1    
    23   11   12 ar   
    24   11   48 1    
    25   12   13 ar   
    26   12   77 1    
    27   13   14 ar   
    28   13   15 1    
    29   14   78 1    
    30   15   16 1    
    31   15   79 1    
    32   15   80 1    
    33   16   17 1    
    34   17   18 1    
    35   17   81 1    
    36   17   82 1    
    37   18   19 1    
    38   18   22 1    
    39   18   83 1    
    40   19   20 am   BACKBONE|DICT|INTERRES
    41   19   21 2    
    42   20   84 1    
    43   20   85 1    
    44   22   23 am   BACKBONE|DICT|INTERRES
    45   22   86 1    
    46   23   24 2    
    47   23   25 1    
    48   25   26 1    
    49   25   27 1    
    50   25   87 1    
    51   26   88 1    
    52   26   89 1    
    53   26   90 1    
    54   27   28 am   BACKBONE|DICT|INTERRES
    55   27   91 1    
    56   28   29 2    
    57   28   30 1    
    58   30   31 1    
    59   30   32 1    
    60   30   92 1    
    61   31   93 1    
    62   31   94 1    
    63   31   95 1    
    64   32   33 am   BACKBONE|DICT|INTERRES
    65   32   96 1    
    66   33   34 2    
    67   33   35 1    
    68   35   36 1    
    69   35   37 1    
    70   35   97 1    
    71   36   98 1    
    72   36   99 1    
    73   36  100 1    
    74   37   38 am   BACKBONE|DICT|INTERRES
    75   37  101 1    
    76   38   39 2    
    77   38   40 1    
    78   40   41 1    
    79   40   42 1    
    80   40  102 1    
    81   41  103 1    
    82   41  104 1    
    83   41  105 1    
    84   42   43 am   BACKBONE|DICT|INTERRES
    85   42  106 1    
    86   43   44 2    
    87   43   45 1    
    88   45   46 1    
    89   45   49 1    
    90   45  107 1    
    91   46   47 1    
    92   46  108 1    
    93   46  109 1    
    94   47   48 1    
    95   48  110 1    
    96   48  111 1    
    97   49   50 am   BACKBONE|DICT|INTERRES
    98   49  112 1    
    99   50   51 2    
   100   50   52 1    
   101   52   53 1    
   102   52   54 1    
   103   52  113 1    
   104   53  114 1    
   105   53  115 1    
   106   53  116 1    
   107   54   55 am   BACKBONE|DICT|INTERRES
   108   54  117 1    
   109   55   56 2    
   110   55   57 1    
   111   57   58 1    
   112   57   59 1    
   113   57  118 1    
   114   58  119 1    
   115   58  120 1    
   116   58  121 1    
   117   59   60 am   BACKBONE|DICT|INTERRES
   118   59  122 1    
   119   60   61 2    
   120   60   62 1    
   121   62   63 1    
   122   62   64 1    
   123   62  123 1    
   124   63  124 1    
   125   63  125 1    
   126   63  126 1    
   127   64   65 am   BACKBONE|DICT|INTERRES
   128   64  127 1    
   129   65   66 2    
@<TRIPOS>SUBSTRUCTURE
     1 UNK         1 GROUP             0       ****    0 ROOT    
