@<TRIPOS>MOLECULE
3R134
127   129    1
SMALL
USER_CHARGES


@<TRIPOS>ATOM
      1 CA         36.3560  -49.2891  -57.6213 C.3       0 UNK        -0.1968 
      2 C          35.2229  -48.6548  -56.8303 C.2       0 UNK         0.4852 
      3 O          34.5646  -49.3460  -56.0506 O.2       0 UNK        -0.5359 
      4 N          35.0007  -47.3429  -57.0093 N.am      1 UNK        -0.4300 
      5 CA         33.9380  -46.5564  -56.3659 C.3       1 UNK         0.0863 
      6 C6         33.9688  -45.0741  -56.8186 C.3       11 UNK        -0.0953 
      7 S7         32.4009  -44.1966  -56.4917 S.3       11 UNK        -0.2369 
      8 C8         32.7974  -43.2315  -54.9937 C.3       11 UNK         0.0226 
      9 C9         31.7017  -43.3771  -53.9477 C.ar      11 UNK        -0.0699 
     10 C10        31.9125  -44.1432  -52.7977 C.ar      11 UNK        -0.0804 
     11 C11        30.8856  -44.3271  -51.8670 C.ar      11 UNK        -0.0871 
     12 C12        29.6403  -43.7311  -52.0901 C.ar      11 UNK        -0.1008 
     13 C13        29.4201  -42.9547  -53.2315 C.ar      11 UNK        -0.0735 
     14 C14        30.4623  -42.7637  -54.1439 C.ar      11 UNK        -0.0945 
     15 C15        28.0506  -42.3417  -53.4867 C.3       11 UNK         0.0169 
     16 S16        27.0205  -43.4251  -54.5299 S.3       11 UNK        -0.2669 
     17 C17        27.8233  -43.2160  -56.1573 C.3       11 UNK        -0.0850 
     18 CA         26.8260  -43.2679  -57.3410 C.3       10 UNK         0.0855 
     19 C          27.5226  -42.8198  -58.6624 C.2       10 UNK         0.5543 
     20 N          27.6839  -43.6715  -59.6688 N.am      10 UNK        -0.7343 
     21 O          27.9219  -41.6636  -58.7760 O.2       10 UNK        -0.5027 
     22 N          26.1528  -44.5718  -57.4145 N.am      10 UNK        -0.4495 
     23 C          25.0504  -44.8261  -58.1311 C.2       10 UNK         0.4903 
     24 O          24.3902  -43.9554  -58.7005 O.2       10 UNK        -0.4860 
     25 CA         24.6301  -46.3062  -58.2420 C.3       9 UNK         0.0227 
     26 CB         23.7816  -46.5908  -59.4992 C.3       9 UNK        -0.1964 
     27 N          25.7616  -47.2417  -58.1596 N.am      9 UNK        -0.4231 
     28 C          26.8428  -47.2893  -58.9588 C.2       9 UNK         0.5014 
     29 O          27.0094  -46.5332  -59.9169 O.2       9 UNK        -0.5270 
     30 CA         27.9506  -48.3068  -58.6206 C.3       8 UNK         0.0284 
     31 CB         29.3061  -47.5989  -58.4364 C.3       8 UNK        -0.1977 
     32 N          27.6455  -49.0831  -57.4162 N.am      8 UNK        -0.4342 
     33 C          26.9569  -50.2348  -57.4098 C.2       8 UNK         0.5039 
     34 O          26.6134  -50.8287  -58.4321 O.2       8 UNK        -0.5547 
     35 CA         26.5406  -50.8080  -56.0417 C.3       7 UNK         0.0281 
     36 CB         27.4387  -51.9924  -55.6507 C.3       7 UNK        -0.1963 
     37 N          26.5302  -49.8038  -54.9700 N.am      7 UNK        -0.4444 
     38 C          25.6417  -48.7987  -54.9003 C.2       7 UNK         0.5104 
     39 O          24.7311  -48.6497  -55.7145 O.2       7 UNK        -0.5100 
     40 CA         25.8142  -47.7476  -53.7878 C.3       6 UNK         0.0396 
     41 CB         24.8868  -48.0632  -52.6045 C.3       6 UNK        -0.1801 
     42 N          27.1877  -47.6049  -53.3009 N.am      6 UNK        -0.4747 
     43 C          28.2405  -47.2354  -54.0453 C.2       6 UNK         0.5012 
     44 O          28.1586  -46.9709  -55.2472 O.2       6 UNK        -0.5003 
     45 CA         29.6247  -47.2299  -53.3591 C.3       5 UNK         0.0782 
     46 C46        29.5645  -47.2615  -51.8050 C.3       11 UNK        -0.0868 
     47 S47        31.2023  -46.9673  -51.0558 S.3       11 UNK        -0.2515 
     48 C48        31.1136  -45.1952  -50.6371 C.3       11 UNK         0.0199 
     49 N          30.4850  -48.2828  -53.9115 N.am      5 UNK        -0.4607 
     50 C          30.1953  -49.5855  -54.0273 C.2       4 UNK         0.5031 
     51 O          29.1462  -50.0955  -53.6308 O.2       4 UNK        -0.5119 
     52 CA         31.2370  -50.4656  -54.7344 C.3       4 UNK         0.0263 
     53 CB         31.2362  -50.1988  -56.2484 C.3       4 UNK        -0.1967 
     54 N          32.5935  -50.2927  -54.2158 N.am      4 UNK        -0.4237 
     55 C          33.0130  -50.7304  -53.0199 C.2       3 UNK         0.4908 
     56 O          32.2890  -51.2986  -52.2018 O.2       3 UNK        -0.5102 
     57 CA         34.4982  -50.5249  -52.6886 C.3       3 UNK         0.0241 
     58 CB         35.3683  -51.5643  -53.4160 C.3       3 UNK        -0.1971 
     59 N          34.9343  -49.1785  -53.0551 N.am      3 UNK        -0.4139 
     60 C          34.9971  -48.1464  -52.2027 C.2       2 UNK         0.5016 
     61 O          34.7939  -48.2454  -50.9919 O.2       2 UNK        -0.5319 
     62 CA         35.3623  -46.7647  -52.7806 C.3       2 UNK         0.0286 
     63 CB         36.8258  -46.4178  -52.4623 C.3       2 UNK        -0.1963 
     64 N          35.1463  -46.6287  -54.2252 N.am      2 UNK        -0.4790 
     65 C          33.9498  -46.6756  -54.8289 C.2       1 UNK         0.5024 
     66 O          32.8924  -46.8620  -54.2334 O.2       1 UNK        -0.4888 
     67 H67        37.0911  -49.7194  -56.9417 H         1 UNK         0.0892 
     68 H68        35.9680  -50.0875  -58.2530 H         1 UNK         0.0892 
     69 H69        36.8642  -48.5667  -58.2596 H         1 UNK         0.0892 
     70 H70        35.5843  -46.8357  -57.6594 H         1 UNK         0.3107 
     71 H71        32.9974  -46.9932  -56.7090 H         1 UNK         0.0773 
     72 H72        34.8111  -44.5362  -56.3797 H         1 UNK         0.0680 
     73 H73        34.1228  -45.0265  -57.8977 H         1 UNK         0.0680 
     74 H74        32.9109  -42.1811  -55.2654 H         1 UNK         0.0650 
     75 H75        33.7553  -43.5458  -54.5774 H         1 UNK         0.0650 
     76 H76        32.8659  -44.6257  -52.6394 H         1 UNK         0.1397 
     77 H77        28.8352  -43.8834  -51.3841 H         1 UNK         0.1363 
     78 H78        30.3058  -42.1648  -55.0294 H         1 UNK         0.1355 
     79 H79        28.1514  -41.3592  -53.9505 H         1 UNK         0.0707 
     80 H80        27.5349  -42.1761  -52.5395 H         1 UNK         0.0707 
     81 H81        28.3380  -42.2543  -56.1623 H         1 UNK         0.1034 
     82 H82        28.5968  -43.9792  -56.2677 H         1 UNK         0.1034 
     83 H83        26.0537  -42.5204  -57.1492 H         1 UNK         0.0482 
     84 H84        27.3566  -44.6307  -59.6119 H         1 UNK         0.3460 
     85 H85        28.1340  -43.3511  -60.5109 H         1 UNK         0.3460 
     86 H86        26.6269  -45.3399  -56.9617 H         1 UNK         0.2989 
     87 H87        24.0059  -46.5072  -57.3703 H         1 UNK         0.0559 
     88 H88        22.8667  -45.9972  -59.4983 H         1 UNK         0.0848 
     89 H89        23.4849  -47.6385  -59.5486 H         1 UNK         0.0848 
     90 H90        24.3230  -46.3515  -60.4151 H         1 UNK         0.0848 
     91 H91        25.7005  -47.9049  -57.3950 H         1 UNK         0.3144 
     92 H92        28.0396  -48.9788  -59.4767 H         1 UNK         0.0727 
     93 H93        29.2890  -46.8881  -57.6100 H         1 UNK         0.0790 
     94 H94        29.5829  -47.0426  -59.3331 H         1 UNK         0.0790 
     95 H95        30.1050  -48.3149  -58.2497 H         1 UNK         0.0790 
     96 H96        27.8658  -48.6346  -56.5329 H         1 UNK         0.3215 
     97 H97        25.5212  -51.1860  -56.1484 H         1 UNK         0.0863 
     98 H98        27.1628  -52.3995  -54.6778 H         1 UNK         0.0808 
     99 H99        28.4902  -51.7118  -55.6124 H         1 UNK         0.0808 
    100 H100       27.3494  -52.8010  -56.3774 H         1 UNK         0.0808 
    101 H101       27.2885  -49.8478  -54.2934 H         1 UNK         0.3118 
    102 H102       25.5168  -46.7832  -54.2057 H         1 UNK         0.0546 
    103 H103       25.1522  -49.0052  -52.1229 H         1 UNK         0.0828 
    104 H104       23.8498  -48.1466  -52.9332 H         1 UNK         0.0828 
    105 H105       24.9220  -47.2767  -51.8505 H         1 UNK         0.0828 
    106 H106       27.3486  -47.8549  -52.3361 H         1 UNK         0.3005 
    107 H107       30.0825  -46.2868  -53.6613 H         1 UNK         0.1257 
    108 H108       28.8688  -46.5133  -51.4215 H         1 UNK         0.0775 
    109 H109       29.2056  -48.2292  -51.4505 H         1 UNK         0.0775 
    110 H110       30.3263  -45.0387  -49.8980 H         1 UNK         0.0840 
    111 H111       32.0465  -44.9001  -50.1548 H         1 UNK         0.0840 
    112 H112       31.3992  -47.9521  -54.2101 H         1 UNK         0.2987 
    113 H113       30.9479  -51.5071  -54.5770 H         1 UNK         0.0785 
    114 H114       30.2386  -50.3211  -56.6709 H         1 UNK         0.0798 
    115 H115       31.8961  -50.8911  -56.7716 H         1 UNK         0.0798 
    116 H116       31.5698  -49.1863  -56.4783 H         1 UNK         0.0798 
    117 H117       33.2724  -49.8744  -54.8492 H         1 UNK         0.3079 
    118 H118       34.6249  -50.6804  -51.6149 H         1 UNK         0.0794 
    119 H119       36.4188  -51.4580  -53.1450 H         1 UNK         0.0786 
    120 H120       35.2927  -51.4751  -54.5003 H         1 UNK         0.0786 
    121 H121       35.0664  -52.5784  -53.1506 H         1 UNK         0.0786 
    122 H122       35.0780  -49.0027  -54.0426 H         1 UNK         0.3032 
    123 H123       34.7217  -46.0383  -52.2769 H         1 UNK         0.1094 
    124 H124       37.5189  -47.1012  -52.9546 H         1 UNK         0.0794 
    125 H125       37.0716  -45.4031  -52.7763 H         1 UNK         0.0794 
    126 H126       37.0171  -46.4770  -51.3898 H         1 UNK         0.0794 
    127 H127       35.9679  -46.4993  -54.7983 H         1 UNK         0.3016 
@<TRIPOS>BOND
     1    1    2 1    
     2    1   67 1    
     3    1   68 1    
     4    1   69 1    
     5    2    3 2    
     6    2    4 am   BACKBONE|DICT|INTERRES
     7    4    5 1    
     8    4   70 1    
     9    5    6 1    
    10    5   65 1    
    11    5   71 1    
    12    6    7 1    
    13    6   72 1    
    14    6   73 1    
    15    7    8 1    
    16    8    9 1    
    17    8   74 1    
    18    8   75 1    
    19    9   10 ar   
    20    9   14 ar   
    21   10   11 ar   
    22   10   76 1    
    23   11   12 ar   
    24   11   48 1    
    25   12   13 ar   
    26   12   77 1    
    27   13   14 ar   
    28   13   15 1    
    29   14   78 1    
    30   15   16 1    
    31   15   79 1    
    32   15   80 1    
    33   16   17 1    
    34   17   18 1    
    35   17   81 1    
    36   17   82 1    
    37   18   19 1    
    38   18   22 1    
    39   18   83 1    
    40   19   20 am   BACKBONE|DICT|INTERRES
    41   19   21 2    
    42   20   84 1    
    43   20   85 1    
    44   22   23 am   BACKBONE|DICT|INTERRES
    45   22   86 1    
    46   23   24 2    
    47   23   25 1    
    48   25   26 1    
    49   25   27 1    
    50   25   87 1    
    51   26   88 1    
    52   26   89 1    
    53   26   90 1    
    54   27   28 am   BACKBONE|DICT|INTERRES
    55   27   91 1    
    56   28   29 2    
    57   28   30 1    
    58   30   31 1    
    59   30   32 1    
    60   30   92 1    
    61   31   93 1    
    62   31   94 1    
    63   31   95 1    
    64   32   33 am   BACKBONE|DICT|INTERRES
    65   32   96 1    
    66   33   34 2    
    67   33   35 1    
    68   35   36 1    
    69   35   37 1    
    70   35   97 1    
    71   36   98 1    
    72   36   99 1    
    73   36  100 1    
    74   37   38 am   BACKBONE|DICT|INTERRES
    75   37  101 1    
    76   38   39 2    
    77   38   40 1    
    78   40   41 1    
    79   40   42 1    
    80   40  102 1    
    81   41  103 1    
    82   41  104 1    
    83   41  105 1    
    84   42   43 am   BACKBONE|DICT|INTERRES
    85   42  106 1    
    86   43   44 2    
    87   43   45 1    
    88   45   46 1    
    89   45   49 1    
    90   45  107 1    
    91   46   47 1    
    92   46  108 1    
    93   46  109 1    
    94   47   48 1    
    95   48  110 1    
    96   48  111 1    
    97   49   50 am   BACKBONE|DICT|INTERRES
    98   49  112 1    
    99   50   51 2    
   100   50   52 1    
   101   52   53 1    
   102   52   54 1    
   103   52  113 1    
   104   53  114 1    
   105   53  115 1    
   106   53  116 1    
   107   54   55 am   BACKBONE|DICT|INTERRES
   108   54  117 1    
   109   55   56 2    
   110   55   57 1    
   111   57   58 1    
   112   57   59 1    
   113   57  118 1    
   114   58  119 1    
   115   58  120 1    
   116   58  121 1    
   117   59   60 am   BACKBONE|DICT|INTERRES
   118   59  122 1    
   119   60   61 2    
   120   60   62 1    
   121   62   63 1    
   122   62   64 1    
   123   62  123 1    
   124   63  124 1    
   125   63  125 1    
   126   63  126 1    
   127   64   65 am   BACKBONE|DICT|INTERRES
   128   64  127 1    
   129   65   66 2    
@<TRIPOS>SUBSTRUCTURE
     1 UNK         1 GROUP             0       ****    0 ROOT    
