@<TRIPOS>MOLECULE
3R134
127   129    1
SMALL
USER_CHARGES


@<TRIPOS>ATOM
      1 CA         36.4292  -46.3646  -51.0413 C.3       0 UNK        -0.1968 
      2 C          36.7192  -46.3703  -52.5349 C.2       0 UNK         0.4852 
      3 O          37.7263  -46.9376  -52.9608 O.2       0 UNK        -0.5359 
      4 N          35.8446  -45.7424  -53.3323 N.am      1 UNK        -0.4300 
      5 CA         35.9322  -45.6869  -54.7977 C.3       1 UNK         0.0863 
      6 C6         35.0837  -44.5229  -55.3708 C.3       11 UNK        -0.0953 
      7 S7         33.2889  -44.6831  -55.0593 S.3       11 UNK        -0.2369 
      8 C8         32.9342  -43.2047  -54.0636 C.3       11 UNK         0.0226 
      9 C9         31.4324  -43.0160  -53.9227 C.ar      11 UNK        -0.0699 
     10 C10        30.7728  -43.3387  -52.7328 C.ar      11 UNK        -0.0804 
     11 C11        29.3856  -43.1846  -52.6274 C.ar      11 UNK        -0.0871 
     12 C12        28.6581  -42.7201  -53.7291 C.ar      11 UNK        -0.1008 
     13 C13        29.3093  -42.3868  -54.9215 C.ar      11 UNK        -0.0735 
     14 C14        30.6978  -42.5235  -55.0033 C.ar      11 UNK        -0.0945 
     15 C15        28.5206  -41.8687  -56.1175 C.3       11 UNK         0.0169 
     16 S16        28.8294  -42.8730  -57.6030 S.3       11 UNK        -0.2669 
     17 C17        27.5802  -42.2203  -58.7610 C.3       11 UNK        -0.0850 
     18 CA         26.2308  -42.9799  -58.6765 C.3       10 UNK         0.0855 
     19 C          25.2311  -42.4412  -59.7353 C.2       10 UNK         0.5543 
     20 N          24.4454  -41.4312  -59.3879 N.am      10 UNK        -0.7343 
     21 O          25.1954  -42.8971  -60.8769 O.2       10 UNK        -0.5027 
     22 N          26.4267  -44.4335  -58.7528 N.am      10 UNK        -0.4495 
     23 C          25.5000  -45.3629  -58.5074 C.2       10 UNK         0.4903 
     24 O          24.3312  -45.1065  -58.2160 O.2       10 UNK        -0.4860 
     25 CA         25.9507  -46.8323  -58.5477 C.3       9 UNK         0.0227 
     26 CB         25.8113  -47.4278  -59.9617 C.3       9 UNK        -0.1964 
     27 N          27.2826  -47.0786  -57.9765 N.am      9 UNK        -0.4231 
     28 C          28.4992  -46.7797  -58.4580 C.2       9 UNK         0.5014 
     29 O          28.6920  -46.1395  -59.4923 O.2       9 UNK        -0.5270 
     30 CA         29.7085  -47.2956  -57.6498 C.3       8 UNK         0.0284 
     31 CB         30.1779  -46.2408  -56.6341 C.3       8 UNK        -0.1977 
     32 N          29.4272  -48.5577  -56.9552 N.am      8 UNK        -0.4342 
     33 C          29.1889  -49.7274  -57.5698 C.2       8 UNK         0.5039 
     34 O          29.3135  -49.9049  -58.7819 O.2       8 UNK        -0.5547 
     35 CA         28.6845  -50.8838  -56.6914 C.3       7 UNK         0.0281 
     36 CB         29.8572  -51.6704  -56.0806 C.3       7 UNK        -0.1963 
     37 N          27.7898  -50.4003  -55.6350 N.am      7 UNK        -0.4444 
     38 C          26.5010  -50.0791  -55.8292 C.2       7 UNK         0.5104 
     39 O          25.9117  -50.2364  -56.8979 O.2       7 UNK        -0.5100 
     40 CA         25.7363  -49.4618  -54.6420 C.3       6 UNK         0.0396 
     41 CB         25.0093  -50.5579  -53.8473 C.3       6 UNK        -0.1801 
     42 N          26.5911  -48.6933  -53.7336 N.am      6 UNK        -0.4747 
     43 C          27.1976  -47.5359  -54.0414 C.2       6 UNK         0.5012 
     44 O          27.0361  -46.9526  -55.1113 O.2       6 UNK        -0.5003 
     45 CA         28.2071  -46.9812  -53.0111 C.3       5 UNK         0.0782 
     46 C46        27.5253  -45.9576  -52.0726 C.3       11 UNK        -0.0868 
     47 S47        28.6965  -45.2413  -50.8695 S.3       11 UNK        -0.2515 
     48 C48        28.6810  -43.4740  -51.3081 C.3       11 UNK         0.0199 
     49 N          28.8755  -48.0621  -52.2696 N.am      5 UNK        -0.4607 
     50 C          29.6571  -48.9886  -52.8341 C.2       4 UNK         0.5031 
     51 O          29.9306  -49.0053  -54.0381 O.2       4 UNK        -0.5119 
     52 CA         30.1300  -50.1325  -51.9328 C.3       4 UNK         0.0263 
     53 CB         28.9807  -51.1290  -51.6788 C.3       4 UNK        -0.1967 
     54 N          31.2362  -50.7991  -52.6071 N.am      4 UNK        -0.4237 
     55 C          32.1105  -51.6525  -52.0633 C.2       3 UNK         0.4908 
     56 O          32.0579  -52.0390  -50.8949 O.2       3 UNK        -0.5102 
     57 CA         33.2471  -52.1604  -52.9738 C.3       3 UNK         0.0241 
     58 CB         32.8814  -53.5320  -53.5653 C.3       3 UNK        -0.1971 
     59 N          33.6034  -51.2456  -54.0671 N.am      3 UNK        -0.4139 
     60 C          34.0772  -50.0029  -53.9011 C.2       2 UNK         0.5016 
     61 O          34.2832  -49.4905  -52.7958 O.2       2 UNK        -0.5319 
     62 CA         34.3397  -49.1898  -55.1775 C.3       2 UNK         0.0286 
     63 CB         33.0636  -49.0295  -56.0298 C.3       2 UNK        -0.1963 
     64 N          34.8199  -47.8759  -54.7697 N.am      2 UNK        -0.4790 
     65 C          35.5812  -47.0334  -55.4747 C.2       1 UNK         0.5024 
     66 O          35.9944  -47.2730  -56.6103 O.2       1 UNK        -0.4888 
     67 H67        37.2705  -45.9371  -50.4964 H         1 UNK         0.0892 
     68 H68        35.5391  -45.7839  -50.8000 H         1 UNK         0.0892 
     69 H69        36.2750  -47.3839  -50.6875 H         1 UNK         0.0892 
     70 H70        35.0329  -45.2954  -52.9310 H         1 UNK         0.3107 
     71 H71        36.9739  -45.4805  -55.0535 H         1 UNK         0.0773 
     72 H72        35.2318  -44.4459  -56.4496 H         1 UNK         0.0680 
     73 H73        35.4411  -43.5767  -54.9620 H         1 UNK         0.0680 
     74 H74        33.3666  -42.3257  -54.5441 H         1 UNK         0.0650 
     75 H75        33.4108  -43.2975  -53.0867 H         1 UNK         0.0650 
     76 H76        31.3360  -43.7090  -51.8870 H         1 UNK         0.1397 
     77 H77        27.5857  -42.6025  -53.6535 H         1 UNK         0.1363 
     78 H78        31.2070  -42.2722  -55.9238 H         1 UNK         0.1355 
     79 H79        27.4510  -41.8723  -55.9023 H         1 UNK         0.0707 
     80 H80        28.8008  -40.8330  -56.3139 H         1 UNK         0.0707 
     81 H81        27.4368  -41.1543  -58.5741 H         1 UNK         0.1034 
     82 H82        27.9937  -42.2963  -59.7687 H         1 UNK         0.1034 
     83 H83        25.8040  -42.7827  -57.6910 H         1 UNK         0.0482 
     84 H84        23.8013  -41.0560  -60.0668 H         1 UNK         0.3460 
     85 H85        24.4727  -41.0435  -58.4576 H         1 UNK         0.3460 
     86 H86        27.3557  -44.7504  -59.0100 H         1 UNK         0.2989 
     87 H87        25.2656  -47.3813  -57.8995 H         1 UNK         0.0559 
     88 H88        24.7836  -47.3442  -60.3173 H         1 UNK         0.0848 
     89 H89        26.0741  -48.4857  -59.9723 H         1 UNK         0.0848 
     90 H90        26.4451  -46.9158  -60.6862 H         1 UNK         0.0848 
     91 H91        27.2613  -47.4605  -57.0365 H         1 UNK         0.3144 
     92 H92        30.5251  -47.4793  -58.3510 H         1 UNK         0.0727 
     93 H93        29.3719  -45.9185  -55.9750 H         1 UNK         0.0790 
     94 H94        30.5469  -45.3512  -57.1455 H         1 UNK         0.0790 
     95 H95        30.9920  -46.6119  -56.0123 H         1 UNK         0.0790 
     96 H96        29.3850  -48.5303  -55.9418 H         1 UNK         0.3215 
     97 H97        28.1237  -51.5683  -57.3321 H         1 UNK         0.0863 
     98 H98        29.5052  -52.4710  -55.4298 H         1 UNK         0.0808 
     99 H99        30.5230  -51.0334  -55.5015 H         1 UNK         0.0808 
    100 H100       30.4589  -52.1317  -56.8647 H         1 UNK         0.0808 
    101 H101       28.2160  -50.1875  -54.7440 H         1 UNK         0.3118 
    102 H102       24.9852  -48.7829  -55.0517 H         1 UNK         0.0546 
    103 H103       25.7082  -51.2623  -53.3943 H         1 UNK         0.0828 
    104 H104       24.3434  -51.1311  -54.4940 H         1 UNK         0.0828 
    105 H105       24.3968  -50.1325  -53.0522 H         1 UNK         0.0828 
    106 H106       26.7695  -49.0969  -52.8255 H         1 UNK         0.3005 
    107 H107       28.9772  -46.4524  -53.5783 H         1 UNK         0.1257 
    108 H108       26.7137  -46.4275  -51.5138 H         1 UNK         0.0775 
    109 H109       27.0679  -45.1549  -52.6544 H         1 UNK         0.0775 
    110 H110       27.6506  -43.1150  -51.3245 H         1 UNK         0.0840 
    111 H111       29.1799  -42.9156  -50.5147 H         1 UNK         0.0840 
    112 H112       28.7031  -48.0928  -51.2748 H         1 UNK         0.2987 
    113 H113       30.4853  -49.7147  -50.9886 H         1 UNK         0.0785 
    114 H114       28.1343  -50.6438  -51.1915 H         1 UNK         0.0798 
    115 H115       29.2958  -51.9434  -51.0265 H         1 UNK         0.0798 
    116 H116       28.6174  -51.5712  -52.6074 H         1 UNK         0.0798 
    117 H117       31.3688  -50.4918  -53.5620 H         1 UNK         0.3079 
    118 H118       34.1323  -52.2824  -52.3458 H         1 UNK         0.0794 
    119 H119       33.7101  -53.9542  -54.1340 H         1 UNK         0.0786 
    120 H120       32.0156  -53.4693  -54.2261 H         1 UNK         0.0786 
    121 H121       32.6373  -54.2449  -52.7762 H         1 UNK         0.0786 
    122 H122       33.4781  -51.5968  -55.0056 H         1 UNK         0.3032 
    123 H123       35.1163  -49.6964  -55.7549 H         1 UNK         0.1094 
    124 H124       32.2456  -48.6044  -55.4476 H         1 UNK         0.0794 
    125 H125       33.2337  -48.3749  -56.8847 H         1 UNK         0.0794 
    126 H126       32.7222  -49.9856  -56.4268 H         1 UNK         0.0794 
    127 H127       34.5941  -47.6433  -53.8102 H         1 UNK         0.3016 
@<TRIPOS>BOND
     1    1    2 1    
     2    1   67 1    
     3    1   68 1    
     4    1   69 1    
     5    2    3 2    
     6    2    4 am   BACKBONE|DICT|INTERRES
     7    4    5 1    
     8    4   70 1    
     9    5    6 1    
    10    5   65 1    
    11    5   71 1    
    12    6    7 1    
    13    6   72 1    
    14    6   73 1    
    15    7    8 1    
    16    8    9 1    
    17    8   74 1    
    18    8   75 1    
    19    9   10 ar   
    20    9   14 ar   
    21   10   11 ar   
    22   10   76 1    
    23   11   12 ar   
    24   11   48 1    
    25   12   13 ar   
    26   12   77 1    
    27   13   14 ar   
    28   13   15 1    
    29   14   78 1    
    30   15   16 1    
    31   15   79 1    
    32   15   80 1    
    33   16   17 1    
    34   17   18 1    
    35   17   81 1    
    36   17   82 1    
    37   18   19 1    
    38   18   22 1    
    39   18   83 1    
    40   19   20 am   BACKBONE|DICT|INTERRES
    41   19   21 2    
    42   20   84 1    
    43   20   85 1    
    44   22   23 am   BACKBONE|DICT|INTERRES
    45   22   86 1    
    46   23   24 2    
    47   23   25 1    
    48   25   26 1    
    49   25   27 1    
    50   25   87 1    
    51   26   88 1    
    52   26   89 1    
    53   26   90 1    
    54   27   28 am   BACKBONE|DICT|INTERRES
    55   27   91 1    
    56   28   29 2    
    57   28   30 1    
    58   30   31 1    
    59   30   32 1    
    60   30   92 1    
    61   31   93 1    
    62   31   94 1    
    63   31   95 1    
    64   32   33 am   BACKBONE|DICT|INTERRES
    65   32   96 1    
    66   33   34 2    
    67   33   35 1    
    68   35   36 1    
    69   35   37 1    
    70   35   97 1    
    71   36   98 1    
    72   36   99 1    
    73   36  100 1    
    74   37   38 am   BACKBONE|DICT|INTERRES
    75   37  101 1    
    76   38   39 2    
    77   38   40 1    
    78   40   41 1    
    79   40   42 1    
    80   40  102 1    
    81   41  103 1    
    82   41  104 1    
    83   41  105 1    
    84   42   43 am   BACKBONE|DICT|INTERRES
    85   42  106 1    
    86   43   44 2    
    87   43   45 1    
    88   45   46 1    
    89   45   49 1    
    90   45  107 1    
    91   46   47 1    
    92   46  108 1    
    93   46  109 1    
    94   47   48 1    
    95   48  110 1    
    96   48  111 1    
    97   49   50 am   BACKBONE|DICT|INTERRES
    98   49  112 1    
    99   50   51 2    
   100   50   52 1    
   101   52   53 1    
   102   52   54 1    
   103   52  113 1    
   104   53  114 1    
   105   53  115 1    
   106   53  116 1    
   107   54   55 am   BACKBONE|DICT|INTERRES
   108   54  117 1    
   109   55   56 2    
   110   55   57 1    
   111   57   58 1    
   112   57   59 1    
   113   57  118 1    
   114   58  119 1    
   115   58  120 1    
   116   58  121 1    
   117   59   60 am   BACKBONE|DICT|INTERRES
   118   59  122 1    
   119   60   61 2    
   120   60   62 1    
   121   62   63 1    
   122   62   64 1    
   123   62  123 1    
   124   63  124 1    
   125   63  125 1    
   126   63  126 1    
   127   64   65 am   BACKBONE|DICT|INTERRES
   128   64  127 1    
   129   65   66 2    
@<TRIPOS>SUBSTRUCTURE
     1 UNK         1 GROUP             0       ****    0 ROOT    
