@<TRIPOS>MOLECULE
3R134
127   129    1
SMALL
USER_CHARGES


@<TRIPOS>ATOM
      1 CA         30.3462  -45.4316  -50.0728 C.3       0 UNK        -0.1968 
      2 C          31.4943  -45.4049  -51.0706 C.2       0 UNK         0.4852 
      3 O          31.2972  -45.7760  -52.2259 O.2       0 UNK        -0.5359 
      4 N          32.6861  -44.9795  -50.6262 N.am      1 UNK        -0.4300 
      5 CA         33.9489  -44.8574  -51.3744 C.3       1 UNK         0.0863 
      6 C6         33.8746  -43.9567  -52.6347 C.3       11 UNK        -0.0953 
      7 S7         33.4257  -42.2345  -52.2456 S.3       11 UNK        -0.2369 
      8 C8         33.7527  -41.4325  -53.8469 C.3       11 UNK         0.0226 
      9 C9         32.7206  -41.8289  -54.8921 C.ar      11 UNK        -0.0699 
     10 C10        32.9659  -42.8942  -55.7634 C.ar      11 UNK        -0.0804 
     11 C11        32.0030  -43.2845  -56.7002 C.ar      11 UNK        -0.0871 
     12 C12        30.8027  -42.5703  -56.7867 C.ar      11 UNK        -0.1008 
     13 C13        30.5554  -41.4894  -55.9350 C.ar      11 UNK        -0.0735 
     14 C14        31.5149  -41.1295  -54.9845 C.ar      11 UNK        -0.0945 
     15 C15        29.2646  -40.6924  -56.0456 C.3       11 UNK         0.0169 
     16 S16        27.8966  -41.4869  -55.1443 S.3       11 UNK        -0.2669 
     17 C17        27.0678  -42.4522  -56.4566 C.3       11 UNK        -0.0850 
     18 CA         27.0005  -43.9762  -56.1614 C.3       10 UNK         0.0855 
     19 C          26.0243  -44.3774  -55.0234 C.2       10 UNK         0.5543 
     20 N          26.0462  -45.6348  -54.6076 N.am      10 UNK        -0.7343 
     21 O          25.2229  -43.5791  -54.5429 O.2       10 UNK        -0.5027 
     22 N          26.6606  -44.7297  -57.3720 N.am      10 UNK        -0.4495 
     23 C          27.5246  -45.1557  -58.2956 C.2       10 UNK         0.4903 
     24 O          28.7442  -45.0014  -58.2306 O.2       10 UNK        -0.4860 
     25 CA         26.9129  -45.8543  -59.5198 C.3       9 UNK         0.0227 
     26 CB         27.6165  -45.4281  -60.8211 C.3       9 UNK        -0.1964 
     27 N          26.9699  -47.3098  -59.4015 N.am      9 UNK        -0.4231 
     28 C          26.1951  -48.0573  -58.6041 C.2       9 UNK         0.5014 
     29 O          25.3498  -47.5886  -57.8397 O.2       9 UNK        -0.5270 
     30 CA         26.3258  -49.5848  -58.7312 C.3       8 UNK         0.0284 
     31 CB         27.2610  -50.0528  -59.8677 C.3       8 UNK        -0.1977 
     32 N          26.7837  -50.1610  -57.4679 N.am      8 UNK        -0.4342 
     33 C          26.0310  -50.9081  -56.6500 C.2       8 UNK         0.5039 
     34 O          24.8388  -51.1555  -56.8419 O.2       8 UNK        -0.5547 
     35 CA         26.7277  -51.5266  -55.4272 C.3       7 UNK         0.0281 
     36 CB         27.5413  -52.7631  -55.8440 C.3       7 UNK        -0.1963 
     37 N          27.5908  -50.5840  -54.7144 N.am      7 UNK        -0.4444 
     38 C          27.1424  -49.5907  -53.9337 C.2       7 UNK         0.5104 
     39 O          25.9501  -49.3793  -53.7093 O.2       7 UNK        -0.5100 
     40 CA         28.2000  -48.6735  -53.2909 C.3       6 UNK         0.0396 
     41 CB         28.7621  -49.3009  -52.0062 C.3       6 UNK        -0.1801 
     42 N          29.3031  -48.3423  -54.1940 N.am      6 UNK        -0.4747 
     43 C          29.1676  -47.6585  -55.3391 C.2       6 UNK         0.5012 
     44 O          28.0952  -47.2104  -55.7377 O.2       6 UNK        -0.5003 
     45 CA         30.4281  -47.4892  -56.2059 C.3       5 UNK         0.0782 
     46 C46        31.2910  -46.3143  -55.6902 C.3       11 UNK        -0.0868 
     47 S47        32.7485  -45.9878  -56.7378 S.3       11 UNK        -0.2515 
     48 C48        32.2569  -44.4702  -57.6262 C.3       11 UNK         0.0199 
     49 N          31.1768  -48.7469  -56.2924 N.am      5 UNK        -0.4607 
     50 C          30.7309  -49.8533  -56.9013 C.2       4 UNK         0.5031 
     51 O          29.6467  -49.9277  -57.4772 O.2       4 UNK        -0.5119 
     52 CA         31.6279  -51.0986  -56.8203 C.3       4 UNK         0.0263 
     53 CB         32.7670  -51.0153  -57.8489 C.3       4 UNK        -0.1967 
     54 N          32.1838  -51.3052  -55.4811 N.am      4 UNK        -0.4237 
     55 C          31.4513  -51.5886  -54.3939 C.2       3 UNK         0.4908 
     56 O          30.2323  -51.7495  -54.4111 O.2       3 UNK        -0.5102 
     57 CA         32.1974  -51.6604  -53.0510 C.3       3 UNK         0.0241 
     58 CB         32.7936  -53.0608  -52.8368 C.3       3 UNK        -0.1971 
     59 N          33.2485  -50.6465  -52.9086 N.am      3 UNK        -0.4139 
     60 C          33.0390  -49.3243  -52.9635 C.2       2 UNK         0.5016 
     61 O          31.9377  -48.8117  -53.1732 O.2       2 UNK        -0.5319 
     62 CA         34.2704  -48.4300  -52.8076 C.3       2 UNK         0.0286 
     63 CB         35.0384  -48.3229  -54.1383 C.3       2 UNK        -0.1963 
     64 N          33.8395  -47.1029  -52.3790 N.am      2 UNK        -0.4790 
     65 C          34.5887  -46.2182  -51.7157 C.2       1 UNK         0.5024 
     66 O          35.7517  -46.4379  -51.3730 O.2       1 UNK        -0.4888 
     67 H67        29.9652  -46.4472  -49.9689 H         1 UNK         0.0892 
     68 H68        30.6510  -45.0796  -49.0874 H         1 UNK         0.0892 
     69 H69        29.5327  -44.7971  -50.4236 H         1 UNK         0.0892 
     70 H70        32.7601  -44.7127  -49.6544 H         1 UNK         0.3107 
     71 H71        34.6392  -44.3744  -50.6805 H         1 UNK         0.0773 
     72 H72        33.1593  -44.3545  -53.3558 H         1 UNK         0.0680 
     73 H73        34.8408  -43.9393  -53.1430 H         1 UNK         0.0680 
     74 H74        34.7596  -41.6814  -54.1857 H         1 UNK         0.0650 
     75 H75        33.7380  -40.3506  -53.7070 H         1 UNK         0.0650 
     76 H76        33.8976  -43.4390  -55.6957 H         1 UNK         0.1397 
     77 H77        30.0568  -42.8559  -57.5154 H         1 UNK         0.1363 
     78 H78        31.3241  -40.3031  -54.3133 H         1 UNK         0.1355 
     79 H79        29.0033  -40.5359  -57.0930 H         1 UNK         0.0707 
     80 H80        29.4110  -39.6945  -55.6291 H         1 UNK         0.0707 
     81 H81        26.0667  -42.0463  -56.6120 H         1 UNK         0.1034 
     82 H82        27.5936  -42.2900  -57.3978 H         1 UNK         0.1034 
     83 H83        27.9924  -44.2922  -55.8301 H         1 UNK         0.0482 
     84 H84        25.4106  -45.9397  -53.8889 H         1 UNK         0.3460 
     85 H85        26.6993  -46.2916  -55.0327 H         1 UNK         0.3460 
     86 H86        25.6885  -44.9956  -57.4568 H         1 UNK         0.2989 
     87 H87        25.8651  -45.5569  -59.6021 H         1 UNK         0.0559 
     88 H88        27.5968  -44.3435  -60.9361 H         1 UNK         0.0848 
     89 H89        27.1260  -45.8541  -61.6965 H         1 UNK         0.0848 
     90 H90        28.6626  -45.7367  -60.8388 H         1 UNK         0.0848 
     91 H91        27.6526  -47.7816  -59.9758 H         1 UNK         0.3144 
     92 H92        25.3261  -49.9512  -58.9728 H         1 UNK         0.0727 
     93 H93        27.2803  -51.1411  -59.9290 H         1 UNK         0.0790 
     94 H94        28.2890  -49.7182  -59.7262 H         1 UNK         0.0790 
     95 H95        26.9188  -49.6894  -60.8378 H         1 UNK         0.0790 
     96 H96        27.7640  -50.0070  -57.2406 H         1 UNK         0.3215 
     97 H97        25.9486  -51.8584  -54.7372 H         1 UNK         0.0863 
     98 H98        27.9545  -53.2758  -54.9752 H         1 UNK         0.0808 
     99 H99        28.3709  -52.4982  -56.5010 H         1 UNK         0.0808 
    100 H100       26.9172  -53.4813  -56.3773 H         1 UNK         0.0808 
    101 H101       28.5932  -50.7387  -54.7811 H         1 UNK         0.3118 
    102 H102       27.7079  -47.7371  -53.0204 H         1 UNK         0.0546 
    103 H103       29.2767  -50.2403  -52.2091 H         1 UNK         0.0828 
    104 H104       27.9646  -49.5111  -51.2926 H         1 UNK         0.0828 
    105 H105       29.4706  -48.6317  -51.5172 H         1 UNK         0.0828 
    106 H106       30.2376  -48.6278  -53.9043 H         1 UNK         0.3005 
    107 H107       30.0865  -47.2373  -57.2129 H         1 UNK         0.1257 
    108 H108       31.6543  -46.5240  -54.6838 H         1 UNK         0.0775 
    109 H109       30.6885  -45.4077  -55.6083 H         1 UNK         0.0775 
    110 H110       33.0480  -44.2030  -58.3277 H         1 UNK         0.0840 
    111 H111       31.3753  -44.6903  -58.2295 H         1 UNK         0.0840 
    112 H112       32.0585  -48.7733  -55.8035 H         1 UNK         0.2987 
    113 H113       31.0107  -51.9662  -57.0642 H         1 UNK         0.0785 
    114 H114       32.3714  -50.8767  -58.8562 H         1 UNK         0.0798 
    115 H115       33.3599  -51.9300  -57.8591 H         1 UNK         0.0798 
    116 H116       33.4391  -50.1806  -57.6455 H         1 UNK         0.0798 
    117 H117       33.1809  -51.1929  -55.3734 H         1 UNK         0.3079 
    118 H118       31.4636  -51.4804  -52.2627 H         1 UNK         0.0794 
    119 H119       33.2350  -53.1570  -51.8445 H         1 UNK         0.0786 
    120 H120       33.5655  -53.2908  -53.5723 H         1 UNK         0.0786 
    121 H121       32.0234  -53.8290  -52.9216 H         1 UNK         0.0786 
    122 H122       34.1852  -50.9866  -52.7427 H         1 UNK         0.3032 
    123 H123       34.9161  -48.8640  -52.0406 H         1 UNK         0.1094 
    124 H124       34.4214  -47.8838  -54.9231 H         1 UNK         0.0794 
    125 H125       35.9306  -47.7054  -54.0336 H         1 UNK         0.0794 
    126 H126       35.3661  -49.3027  -54.4874 H         1 UNK         0.0794 
    127 H127       32.8619  -46.8771  -52.5649 H         1 UNK         0.3016 
@<TRIPOS>BOND
     1    1    2 1    
     2    1   67 1    
     3    1   68 1    
     4    1   69 1    
     5    2    3 2    
     6    2    4 am   BACKBONE|DICT|INTERRES
     7    4    5 1    
     8    4   70 1    
     9    5    6 1    
    10    5   65 1    
    11    5   71 1    
    12    6    7 1    
    13    6   72 1    
    14    6   73 1    
    15    7    8 1    
    16    8    9 1    
    17    8   74 1    
    18    8   75 1    
    19    9   10 ar   
    20    9   14 ar   
    21   10   11 ar   
    22   10   76 1    
    23   11   12 ar   
    24   11   48 1    
    25   12   13 ar   
    26   12   77 1    
    27   13   14 ar   
    28   13   15 1    
    29   14   78 1    
    30   15   16 1    
    31   15   79 1    
    32   15   80 1    
    33   16   17 1    
    34   17   18 1    
    35   17   81 1    
    36   17   82 1    
    37   18   19 1    
    38   18   22 1    
    39   18   83 1    
    40   19   20 am   BACKBONE|DICT|INTERRES
    41   19   21 2    
    42   20   84 1    
    43   20   85 1    
    44   22   23 am   BACKBONE|DICT|INTERRES
    45   22   86 1    
    46   23   24 2    
    47   23   25 1    
    48   25   26 1    
    49   25   27 1    
    50   25   87 1    
    51   26   88 1    
    52   26   89 1    
    53   26   90 1    
    54   27   28 am   BACKBONE|DICT|INTERRES
    55   27   91 1    
    56   28   29 2    
    57   28   30 1    
    58   30   31 1    
    59   30   32 1    
    60   30   92 1    
    61   31   93 1    
    62   31   94 1    
    63   31   95 1    
    64   32   33 am   BACKBONE|DICT|INTERRES
    65   32   96 1    
    66   33   34 2    
    67   33   35 1    
    68   35   36 1    
    69   35   37 1    
    70   35   97 1    
    71   36   98 1    
    72   36   99 1    
    73   36  100 1    
    74   37   38 am   BACKBONE|DICT|INTERRES
    75   37  101 1    
    76   38   39 2    
    77   38   40 1    
    78   40   41 1    
    79   40   42 1    
    80   40  102 1    
    81   41  103 1    
    82   41  104 1    
    83   41  105 1    
    84   42   43 am   BACKBONE|DICT|INTERRES
    85   42  106 1    
    86   43   44 2    
    87   43   45 1    
    88   45   46 1    
    89   45   49 1    
    90   45  107 1    
    91   46   47 1    
    92   46  108 1    
    93   46  109 1    
    94   47   48 1    
    95   48  110 1    
    96   48  111 1    
    97   49   50 am   BACKBONE|DICT|INTERRES
    98   49  112 1    
    99   50   51 2    
   100   50   52 1    
   101   52   53 1    
   102   52   54 1    
   103   52  113 1    
   104   53  114 1    
   105   53  115 1    
   106   53  116 1    
   107   54   55 am   BACKBONE|DICT|INTERRES
   108   54  117 1    
   109   55   56 2    
   110   55   57 1    
   111   57   58 1    
   112   57   59 1    
   113   57  118 1    
   114   58  119 1    
   115   58  120 1    
   116   58  121 1    
   117   59   60 am   BACKBONE|DICT|INTERRES
   118   59  122 1    
   119   60   61 2    
   120   60   62 1    
   121   62   63 1    
   122   62   64 1    
   123   62  123 1    
   124   63  124 1    
   125   63  125 1    
   126   63  126 1    
   127   64   65 am   BACKBONE|DICT|INTERRES
   128   64  127 1    
   129   65   66 2    
@<TRIPOS>SUBSTRUCTURE
     1 UNK         1 GROUP             0       ****    0 ROOT    
