@<TRIPOS>MOLECULE
3R134
127   129    1
SMALL
USER_CHARGES


@<TRIPOS>ATOM
      1 CA         32.2313  -48.4426  -60.2683 C.3       0 UNK        -0.1968 
      2 C          32.8833  -48.0284  -58.9574 C.2       0 UNK         0.4852 
      3 O          34.0168  -47.5463  -58.9669 O.2       0 UNK        -0.5359 
      4 N          32.1698  -48.2137  -57.8398 N.am      1 UNK        -0.4300 
      5 CA         32.6146  -47.9629  -56.4663 C.3       1 UNK         0.0863 
      6 C6         32.9876  -46.4751  -56.1955 C.3       11 UNK        -0.0953 
      7 S7         32.9270  -46.0547  -54.4215 S.3       11 UNK        -0.2369 
      8 C8         33.1515  -44.2517  -54.4608 C.3       11 UNK         0.0226 
      9 C9         31.8305  -43.5156  -54.2980 C.ar      11 UNK        -0.0699 
     10 C10        31.1694  -43.5453  -53.0672 C.ar      11 UNK        -0.0804 
     11 C11        29.9727  -42.8442  -52.8773 C.ar      11 UNK        -0.0871 
     12 C12        29.4542  -42.0889  -53.9346 C.ar      11 UNK        -0.1008 
     13 C13        30.1176  -42.0323  -55.1646 C.ar      11 UNK        -0.0735 
     14 C14        31.2966  -42.7622  -55.3468 C.ar      11 UNK        -0.0945 
     15 C15        29.5995  -41.1332  -56.2778 C.3       11 UNK         0.0169 
     16 S16        28.6320  -42.0536  -57.5081 S.3       11 UNK        -0.2669 
     17 C17        27.0456  -42.2886  -56.6273 C.3       11 UNK        -0.0850 
     18 CA         25.8775  -42.6683  -57.5774 C.3       10 UNK         0.0855 
     19 C          25.3592  -41.4461  -58.3926 C.2       10 UNK         0.5543 
     20 N          25.4267  -41.4503  -59.7184 N.am      10 UNK        -0.7343 
     21 O          24.8748  -40.4809  -57.8067 O.2       10 UNK        -0.5027 
     22 N          26.2313  -43.8561  -58.3648 N.am      10 UNK        -0.4495 
     23 C          25.3941  -44.6772  -59.0084 C.2       10 UNK         0.4903 
     24 O          24.1724  -44.5330  -59.0446 O.2       10 UNK        -0.4860 
     25 CA         26.0444  -45.8766  -59.7251 C.3       9 UNK         0.0227 
     26 CB         26.3087  -45.5417  -61.2021 C.3       9 UNK        -0.1964 
     27 N          27.2990  -46.2968  -59.0859 N.am      9 UNK        -0.4231 
     28 C          27.3610  -46.9107  -57.8965 C.2       9 UNK         0.5014 
     29 O          26.3684  -47.2893  -57.2694 O.2       9 UNK        -0.5270 
     30 CA         28.7610  -47.0834  -57.2913 C.3       8 UNK         0.0284 
     31 CB         29.1547  -45.8384  -56.4755 C.3       8 UNK        -0.1977 
     32 N          28.7658  -48.2511  -56.4114 N.am      8 UNK        -0.4342 
     33 C          29.1937  -49.4673  -56.7732 C.2       8 UNK         0.5039 
     34 O          29.7307  -49.6873  -57.8605 O.2       8 UNK        -0.5547 
     35 CA         29.0477  -50.6277  -55.7723 C.3       7 UNK         0.0281 
     36 CB         30.4030  -51.3011  -55.5054 C.3       7 UNK        -0.1963 
     37 N          28.4836  -50.1985  -54.4934 N.am      7 UNK        -0.4444 
     38 C          27.1884  -50.2865  -54.1614 C.2       7 UNK         0.5104 
     39 O          26.3304  -50.7995  -54.8801 O.2       7 UNK        -0.5100 
     40 CA         26.7662  -49.6911  -52.8037 C.3       6 UNK         0.0396 
     41 CB         26.6729  -50.7988  -51.7425 C.3       6 UNK        -0.1801 
     42 N          27.6566  -48.6353  -52.3132 N.am      6 UNK        -0.4747 
     43 C          27.8951  -47.4680  -52.9309 C.2       6 UNK         0.5012 
     44 O          27.3395  -47.1286  -53.9734 O.2       6 UNK        -0.5003 
     45 CA         28.9588  -46.5450  -52.3007 C.3       5 UNK         0.0782 
     46 C46        28.2556  -45.4681  -51.4358 C.3       11 UNK        -0.0868 
     47 S47        29.4090  -44.3613  -50.5575 S.3       11 UNK        -0.2515 
     48 C48        29.2686  -42.8164  -51.5212 C.3       11 UNK         0.0199 
     49 N          29.9872  -47.2827  -51.5507 N.am      5 UNK        -0.4607 
     50 C          30.7993  -48.2266  -52.0479 C.2       4 UNK         0.5031 
     51 O          30.7564  -48.6082  -53.2199 O.2       4 UNK        -0.5119 
     52 CA         31.8092  -48.8278  -51.0490 C.3       4 UNK         0.0263 
     53 CB         31.1116  -49.3809  -49.7858 C.3       4 UNK        -0.1967 
     54 N          32.6941  -49.8422  -51.6365 N.am      4 UNK        -0.4237 
     55 C          32.3737  -51.0481  -52.1302 C.2       3 UNK         0.4908 
     56 O          31.2355  -51.5210  -52.1211 O.2       3 UNK        -0.5102 
     57 CA         33.5402  -51.8569  -52.7372 C.3       3 UNK         0.0241 
     58 CB         33.0890  -53.1831  -53.3770 C.3       3 UNK        -0.1971 
     59 N          34.2747  -51.0755  -53.7354 N.am      3 UNK        -0.4139 
     60 C          35.2278  -50.1733  -53.4745 C.2       2 UNK         0.5016 
     61 O          35.6281  -49.9204  -52.3377 O.2       2 UNK        -0.5319 
     62 CA         35.7695  -49.3631  -54.6631 C.3       2 UNK         0.0286 
     63 CB         36.5637  -50.2388  -55.6536 C.3       2 UNK        -0.1963 
     64 N          34.7180  -48.5779  -55.3245 N.am      2 UNK        -0.4790 
     65 C          33.6744  -49.0086  -56.0482 C.2       1 UNK         0.5024 
     66 O          33.5002  -50.1924  -56.3483 O.2       1 UNK        -0.4888 
     67 H67        32.8348  -49.2028  -60.7634 H         1 UNK         0.0892 
     68 H68        31.2320  -48.8508  -60.1150 H         1 UNK         0.0892 
     69 H69        32.1484  -47.5843  -60.9345 H         1 UNK         0.0892 
     70 H70        31.2773  -48.7014  -57.9119 H         1 UNK         0.3107 
     71 H71        31.7424  -48.1875  -55.8508 H         1 UNK         0.0773 
     72 H72        33.9715  -46.2284  -56.5983 H         1 UNK         0.0680 
     73 H73        32.2832  -45.8199  -56.7100 H         1 UNK         0.0680 
     74 H74        33.6581  -43.9560  -55.3808 H         1 UNK         0.0650 
     75 H75        33.8163  -43.9674  -53.6440 H         1 UNK         0.0650 
     76 H76        31.6033  -44.1100  -52.2537 H         1 UNK         0.1397 
     77 H77        28.5482  -41.5156  -53.7913 H         1 UNK         0.1363 
     78 H78        31.8125  -42.7174  -56.2962 H         1 UNK         0.1355 
     79 H79        30.4440  -40.6622  -56.7831 H         1 UNK         0.0707 
     80 H80        29.0010  -40.3164  -55.8713 H         1 UNK         0.0707 
     81 H81        27.1859  -43.0785  -55.8875 H         1 UNK         0.1034 
     82 H82        26.8025  -41.3911  -56.0552 H         1 UNK         0.1034 
     83 H83        25.0377  -42.9602  -56.9438 H         1 UNK         0.0482 
     84 H84        25.8217  -42.2390  -60.2036 H         1 UNK         0.3460 
     85 H85        25.0836  -40.6560  -60.2350 H         1 UNK         0.3460 
     86 H86        27.2212  -44.0417  -58.4213 H         1 UNK         0.2989 
     87 H87        25.3398  -46.7102  -59.6854 H         1 UNK         0.0559 
     88 H88        27.0183  -44.7209  -61.3134 H         1 UNK         0.0848 
     89 H89        25.3869  -45.2454  -61.7049 H         1 UNK         0.0848 
     90 H90        26.7045  -46.4035  -61.7398 H         1 UNK         0.0848 
     91 H91        28.1578  -46.0343  -59.5487 H         1 UNK         0.3144 
     92 H92        29.4864  -47.2099  -58.0969 H         1 UNK         0.0727 
     93 H93        29.3796  -44.9973  -57.1312 H         1 UNK         0.0790 
     94 H94        30.0408  -46.0182  -55.8674 H         1 UNK         0.0790 
     95 H95        28.3571  -45.5186  -55.8041 H         1 UNK         0.0790 
     96 H96        28.2567  -48.1407  -55.5405 H         1 UNK         0.3215 
     97 H97        28.3945  -51.3671  -56.2402 H         1 UNK         0.0863 
     98 H98        31.1037  -50.6184  -55.0247 H         1 UNK         0.0808 
     99 H99        30.8665  -51.6490  -56.4295 H         1 UNK         0.0808 
    100 H100       30.2847  -52.1677  -54.8553 H         1 UNK         0.0808 
    101 H101       29.1299  -49.7459  -53.8532 H         1 UNK         0.3118 
    102 H102       25.7742  -49.2534  -52.9327 H         1 UNK         0.0546 
    103 H103       27.6439  -51.2591  -51.5538 H         1 UNK         0.0828 
    104 H104       25.9945  -51.5907  -52.0636 H         1 UNK         0.0828 
    105 H105       26.2922  -50.4138  -50.7964 H         1 UNK         0.0828 
    106 H106       28.1675  -48.8316  -51.4646 H         1 UNK         0.3005 
    107 H107       29.4686  -46.0430  -53.1268 H         1 UNK         0.1257 
    108 H108       27.6261  -45.9399  -50.6785 H         1 UNK         0.0775 
    109 H109       27.5828  -44.8684  -52.0523 H         1 UNK         0.0775 
    110 H110       28.2126  -42.5689  -51.6406 H         1 UNK         0.0840 
    111 H111       29.7049  -42.0082  -50.9330 H         1 UNK         0.0840 
    112 H112       30.1001  -47.0012  -50.5876 H         1 UNK         0.2987 
    113 H113       32.4628  -48.0095  -50.7431 H         1 UNK         0.0785 
    114 H114       30.6197  -48.5899  -49.2191 H         1 UNK         0.0798 
    115 H115       31.8288  -49.8510  -49.1128 H         1 UNK         0.0798 
    116 H116       30.3520  -50.1236  -50.0325 H         1 UNK         0.0798 
    117 H117       33.6687  -49.5726  -51.7181 H         1 UNK         0.3079 
    118 H118       34.2142  -52.1039  -51.9141 H         1 UNK         0.0794 
    119 H119       32.5443  -53.8006  -52.6616 H         1 UNK         0.0786 
    120 H120       33.9440  -53.7663  -53.7194 H         1 UNK         0.0786 
    121 H121       32.4356  -53.0174  -54.2330 H         1 UNK         0.0786 
    122 H122       33.9473  -51.1307  -54.6958 H         1 UNK         0.3032 
    123 H123       36.4681  -48.6335  -54.2491 H         1 UNK         0.1094 
    124 H124       37.4032  -50.7224  -55.1526 H         1 UNK         0.0794 
    125 H125       35.9562  -51.0291  -56.0948 H         1 UNK         0.0794 
    126 H126       36.9737  -49.6405  -56.4672 H         1 UNK         0.0794 
    127 H127       34.7199  -47.5913  -55.0968 H         1 UNK         0.3016 
@<TRIPOS>BOND
     1    1    2 1    
     2    1   67 1    
     3    1   68 1    
     4    1   69 1    
     5    2    3 2    
     6    2    4 am   BACKBONE|DICT|INTERRES
     7    4    5 1    
     8    4   70 1    
     9    5    6 1    
    10    5   65 1    
    11    5   71 1    
    12    6    7 1    
    13    6   72 1    
    14    6   73 1    
    15    7    8 1    
    16    8    9 1    
    17    8   74 1    
    18    8   75 1    
    19    9   10 ar   
    20    9   14 ar   
    21   10   11 ar   
    22   10   76 1    
    23   11   12 ar   
    24   11   48 1    
    25   12   13 ar   
    26   12   77 1    
    27   13   14 ar   
    28   13   15 1    
    29   14   78 1    
    30   15   16 1    
    31   15   79 1    
    32   15   80 1    
    33   16   17 1    
    34   17   18 1    
    35   17   81 1    
    36   17   82 1    
    37   18   19 1    
    38   18   22 1    
    39   18   83 1    
    40   19   20 am   BACKBONE|DICT|INTERRES
    41   19   21 2    
    42   20   84 1    
    43   20   85 1    
    44   22   23 am   BACKBONE|DICT|INTERRES
    45   22   86 1    
    46   23   24 2    
    47   23   25 1    
    48   25   26 1    
    49   25   27 1    
    50   25   87 1    
    51   26   88 1    
    52   26   89 1    
    53   26   90 1    
    54   27   28 am   BACKBONE|DICT|INTERRES
    55   27   91 1    
    56   28   29 2    
    57   28   30 1    
    58   30   31 1    
    59   30   32 1    
    60   30   92 1    
    61   31   93 1    
    62   31   94 1    
    63   31   95 1    
    64   32   33 am   BACKBONE|DICT|INTERRES
    65   32   96 1    
    66   33   34 2    
    67   33   35 1    
    68   35   36 1    
    69   35   37 1    
    70   35   97 1    
    71   36   98 1    
    72   36   99 1    
    73   36  100 1    
    74   37   38 am   BACKBONE|DICT|INTERRES
    75   37  101 1    
    76   38   39 2    
    77   38   40 1    
    78   40   41 1    
    79   40   42 1    
    80   40  102 1    
    81   41  103 1    
    82   41  104 1    
    83   41  105 1    
    84   42   43 am   BACKBONE|DICT|INTERRES
    85   42  106 1    
    86   43   44 2    
    87   43   45 1    
    88   45   46 1    
    89   45   49 1    
    90   45  107 1    
    91   46   47 1    
    92   46  108 1    
    93   46  109 1    
    94   47   48 1    
    95   48  110 1    
    96   48  111 1    
    97   49   50 am   BACKBONE|DICT|INTERRES
    98   49  112 1    
    99   50   51 2    
   100   50   52 1    
   101   52   53 1    
   102   52   54 1    
   103   52  113 1    
   104   53  114 1    
   105   53  115 1    
   106   53  116 1    
   107   54   55 am   BACKBONE|DICT|INTERRES
   108   54  117 1    
   109   55   56 2    
   110   55   57 1    
   111   57   58 1    
   112   57   59 1    
   113   57  118 1    
   114   58  119 1    
   115   58  120 1    
   116   58  121 1    
   117   59   60 am   BACKBONE|DICT|INTERRES
   118   59  122 1    
   119   60   61 2    
   120   60   62 1    
   121   62   63 1    
   122   62   64 1    
   123   62  123 1    
   124   63  124 1    
   125   63  125 1    
   126   63  126 1    
   127   64   65 am   BACKBONE|DICT|INTERRES
   128   64  127 1    
   129   65   66 2    
@<TRIPOS>SUBSTRUCTURE
     1 UNK         1 GROUP             0       ****    0 ROOT    
