@<TRIPOS>MOLECULE
3R134
127   129    1
SMALL
USER_CHARGES


@<TRIPOS>ATOM
      1 CA         36.8023  -46.7706  -54.4859 C.3       0 UNK        -0.1968 
      2 C          36.0461  -45.9992  -53.4145 C.2       0 UNK         0.4852 
      3 O          36.5240  -45.8999  -52.2840 O.2       0 UNK        -0.5359 
      4 N          34.8689  -45.4612  -53.7654 N.am      1 UNK        -0.4300 
      5 CA         33.9627  -44.6986  -52.8926 C.3       1 UNK         0.0863 
      6 C6         34.6096  -43.3831  -52.3701 C.3       11 UNK        -0.0953 
      7 S7         33.4369  -41.9959  -52.1995 S.3       11 UNK        -0.2369 
      8 C8         33.4532  -41.2666  -53.8718 C.3       11 UNK         0.0226 
      9 C9         32.5486  -42.0401  -54.8196 C.ar      11 UNK        -0.0699 
     10 C10        33.0869  -42.9127  -55.7719 C.ar      11 UNK        -0.0804 
     11 C11        32.2432  -43.6820  -56.5801 C.ar      11 UNK        -0.0871 
     12 C12        30.8570  -43.5333  -56.4690 C.ar      11 UNK        -0.1008 
     13 C13        30.3106  -42.6621  -55.5244 C.ar      11 UNK        -0.0735 
     14 C14        31.1607  -41.9128  -54.7077 C.ar      11 UNK        -0.0945 
     15 C15        28.8039  -42.5629  -55.3581 C.3       11 UNK         0.0169 
     16 S16        28.1859  -43.8843  -54.2679 S.3       11 UNK        -0.2669 
     17 C17        26.4068  -43.4754  -54.1994 C.3       11 UNK        -0.0850 
     18 CA         25.5043  -44.4795  -54.9664 C.3       10 UNK         0.0855 
     19 C          24.0068  -44.0835  -54.8024 C.2       10 UNK         0.5543 
     20 N          23.3187  -43.6333  -55.8444 N.am      10 UNK        -0.7343 
     21 O          23.4643  -44.1822  -53.7046 O.2       10 UNK        -0.5027 
     22 N          25.9654  -44.6721  -56.3519 N.am      10 UNK        -0.4495 
     23 C          25.5429  -45.6221  -57.1947 C.2       10 UNK         0.4903 
     24 O          24.6468  -46.4243  -56.9340 O.2       10 UNK        -0.4860 
     25 CA         26.2220  -45.6927  -58.5700 C.3       9 UNK         0.0227 
     26 CB         27.2735  -44.5919  -58.8277 C.3       9 UNK        -0.1964 
     27 N          26.8611  -46.9989  -58.6920 N.am      9 UNK        -0.4231 
     28 C          26.6880  -47.8554  -59.7046 C.2       9 UNK         0.5014 
     29 O          25.9636  -47.6379  -60.6777 O.2       9 UNK        -0.5270 
     30 CA         27.4722  -49.1756  -59.6393 C.3       8 UNK         0.0284 
     31 CB         28.9032  -48.9704  -60.1632 C.3       8 UNK        -0.1977 
     32 N          27.5180  -49.7641  -58.2978 N.am      8 UNK        -0.4342 
     33 C          26.4732  -50.3401  -57.6847 C.2       8 UNK         0.5039 
     34 O          25.3492  -50.4250  -58.1813 O.2       8 UNK        -0.5547 
     35 CA         26.7240  -50.9422  -56.2910 C.3       7 UNK         0.0281 
     36 CB         27.4610  -52.2873  -56.3974 C.3       7 UNK        -0.1963 
     37 N          27.4761  -50.0354  -55.4250 N.am      7 UNK        -0.4444 
     38 C          26.9670  -48.9340  -54.8564 C.2       7 UNK         0.5104 
     39 O          25.7772  -48.6263  -54.9032 O.2       7 UNK        -0.5100 
     40 CA         27.9502  -48.0136  -54.1125 C.3       6 UNK         0.0396 
     41 CB         27.9989  -48.3546  -52.6150 C.3       6 UNK        -0.1801 
     42 N          29.3039  -48.0616  -54.6683 N.am      6 UNK        -0.4747 
     43 C          29.6478  -47.5592  -55.8626 C.2       6 UNK         0.5012 
     44 O          28.8601  -47.0007  -56.6264 O.2       6 UNK        -0.5003 
     45 CA         31.1159  -47.7470  -56.2905 C.3       5 UNK         0.0782 
     46 C46        32.0172  -46.6918  -55.6072 C.3       11 UNK        -0.0868 
     47 S47        33.4382  -46.2028  -56.6428 S.3       11 UNK        -0.2515 
     48 C48        32.8171  -44.7274  -57.5270 C.3       11 UNK         0.0199 
     49 N          31.5831  -49.1146  -56.0321 N.am      5 UNK        -0.4607 
     50 C          31.0880  -50.2043  -56.6353 C.2       4 UNK         0.5031 
     51 O          30.2172  -50.1650  -57.5021 O.2       4 UNK        -0.5119 
     52 CA         31.6036  -51.5735  -56.1624 C.3       4 UNK         0.0263 
     53 CB         32.8674  -51.9679  -56.9418 C.3       4 UNK        -0.1967 
     54 N          31.8739  -51.6399  -54.7241 N.am      4 UNK        -0.4237 
     55 C          30.9840  -51.3983  -53.7507 C.2       3 UNK         0.4908 
     56 O          29.8105  -51.0885  -53.9578 O.2       3 UNK        -0.5102 
     57 CA         31.4886  -51.4847  -52.2978 C.3       3 UNK         0.0241 
     58 CB         32.7646  -52.3422  -52.1333 C.3       3 UNK        -0.1971 
     59 N          31.6860  -50.1614  -51.6902 N.am      3 UNK        -0.4139 
     60 C          32.4454  -49.1626  -52.1635 C.2       2 UNK         0.5016 
     61 O          33.0366  -49.1934  -53.2494 O.2       2 UNK        -0.5319 
     62 CA         32.5855  -47.9242  -51.2658 C.3       2 UNK         0.0286 
     63 CB         33.4333  -48.2370  -50.0171 C.3       2 UNK        -0.1963 
     64 N          33.2279  -46.8841  -52.0590 N.am      2 UNK        -0.4790 
     65 C          33.2937  -45.5727  -51.8026 C.2       1 UNK         0.5024 
     66 O          32.8268  -45.0592  -50.7851 O.2       1 UNK        -0.4888 
     67 H67        36.2933  -46.7406  -55.4491 H         1 UNK         0.0892 
     68 H68        37.7991  -46.3506  -54.6177 H         1 UNK         0.0892 
     69 H69        36.9077  -47.8144  -54.1912 H         1 UNK         0.0892 
     70 H70        34.5360  -45.5945  -54.7132 H         1 UNK         0.3107 
     71 H71        33.1322  -44.4291  -53.5428 H         1 UNK         0.0773 
     72 H72        35.4017  -43.0556  -53.0451 H         1 UNK         0.0680 
     73 H73        35.1026  -43.5478  -51.4103 H         1 UNK         0.0680 
     74 H74        34.4746  -41.2185  -54.2519 H         1 UNK         0.0650 
     75 H75        33.1038  -40.2352  -53.8067 H         1 UNK         0.0650 
     76 H76        34.1591  -43.0332  -55.8476 H         1 UNK         0.1397 
     77 H77        30.1999  -44.1375  -57.0791 H         1 UNK         0.1363 
     78 H78        30.7431  -41.2527  -53.9595 H         1 UNK         0.1355 
     79 H79        28.3175  -42.6278  -56.3321 H         1 UNK         0.0707 
     80 H80        28.5357  -41.5909  -54.9406 H         1 UNK         0.0707 
     81 H81        26.1225  -43.4479  -53.1455 H         1 UNK         0.1034 
     82 H82        26.2495  -42.4616  -54.5727 H         1 UNK         0.1034 
     83 H83        25.6078  -45.4496  -54.4763 H         1 UNK         0.0482 
     84 H84        22.3501  -43.3808  -55.7269 H         1 UNK         0.3460 
     85 H85        23.7553  -43.5576  -56.7488 H         1 UNK         0.3460 
     86 H86        26.7155  -44.0690  -56.6495 H         1 UNK         0.2989 
     87 H87        25.4271  -45.5827  -59.3102 H         1 UNK         0.0559 
     88 H88        26.8367  -43.5952  -58.7528 H         1 UNK         0.0848 
     89 H89        27.6868  -44.6797  -59.8327 H         1 UNK         0.0848 
     90 H90        28.1073  -44.6533  -58.1278 H         1 UNK         0.0848 
     91 H91        27.4817  -47.2523  -57.9261 H         1 UNK         0.3144 
     92 H92        26.9729  -49.8880  -60.2995 H         1 UNK         0.0727 
     93 H93        29.4459  -49.9146  -60.2130 H         1 UNK         0.0790 
     94 H94        29.4722  -48.2911  -59.5268 H         1 UNK         0.0790 
     95 H95        28.8955  -48.5478  -61.1688 H         1 UNK         0.0790 
     96 H96        28.4328  -49.7991  -57.8514 H         1 UNK         0.3215 
     97 H97        25.7525  -51.1279  -55.8273 H         1 UNK         0.0863 
     98 H98        27.6193  -52.7319  -55.4146 H         1 UNK         0.0808 
     99 H99        28.4339  -52.1814  -56.8769 H         1 UNK         0.0808 
    100 H100       26.8839  -53.0000  -56.9879 H         1 UNK         0.0808 
    101 H101       28.4470  -50.2638  -55.2385 H         1 UNK         0.3118 
    102 H102       27.5823  -46.9905  -54.2145 H         1 UNK         0.0546 
    103 H103       28.3690  -49.3653  -52.4402 H         1 UNK         0.0828 
    104 H104       27.0047  -48.2912  -52.1707 H         1 UNK         0.0828 
    105 H105       28.6401  -47.6610  -52.0710 H         1 UNK         0.0828 
    106 H106       29.9954  -48.5737  -54.1400 H         1 UNK         0.3005 
    107 H107       31.1374  -47.5866  -57.3712 H         1 UNK         0.1257 
    108 H108       32.4065  -47.0842  -54.6704 H         1 UNK         0.0775 
    109 H109       31.4587  -45.8067  -55.3075 H         1 UNK         0.0775 
    110 H110       33.6330  -44.2883  -58.1029 H         1 UNK         0.0840 
    111 H111       32.0667  -45.0409  -58.2546 H         1 UNK         0.0840 
    112 H112       32.2744  -49.2325  -55.2999 H         1 UNK         0.2987 
    113 H113       30.8264  -52.3083  -56.3800 H         1 UNK         0.0785 
    114 H114       32.6846  -51.9465  -58.0172 H         1 UNK         0.0798 
    115 H115       33.1903  -52.9784  -56.6906 H         1 UNK         0.0798 
    116 H116       33.6964  -51.2887  -56.7384 H         1 UNK         0.0798 
    117 H117       32.8246  -51.8415  -54.4504 H         1 UNK         0.3079 
    118 H118       30.6921  -51.9717  -51.7329 H         1 UNK         0.0794 
    119 H119       32.9968  -52.4921  -51.0788 H         1 UNK         0.0786 
    120 H120       33.6391  -51.8822  -52.5950 H         1 UNK         0.0786 
    121 H121       32.6357  -53.3323  -52.5731 H         1 UNK         0.0786 
    122 H122       31.2167  -50.0227  -50.8060 H         1 UNK         0.3032 
    123 H123       31.5893  -47.5864  -50.9718 H         1 UNK         0.1094 
    124 H124       34.4351  -48.5734  -50.2878 H         1 UNK         0.0794 
    125 H125       33.5391  -47.3619  -49.3758 H         1 UNK         0.0794 
    126 H126       32.9771  -49.0213  -49.4122 H         1 UNK         0.0794 
    127 H127       33.6289  -47.2407  -52.9187 H         1 UNK         0.3016 
@<TRIPOS>BOND
     1    1    2 1    
     2    1   67 1    
     3    1   68 1    
     4    1   69 1    
     5    2    3 2    
     6    2    4 am   BACKBONE|DICT|INTERRES
     7    4    5 1    
     8    4   70 1    
     9    5    6 1    
    10    5   65 1    
    11    5   71 1    
    12    6    7 1    
    13    6   72 1    
    14    6   73 1    
    15    7    8 1    
    16    8    9 1    
    17    8   74 1    
    18    8   75 1    
    19    9   10 ar   
    20    9   14 ar   
    21   10   11 ar   
    22   10   76 1    
    23   11   12 ar   
    24   11   48 1    
    25   12   13 ar   
    26   12   77 1    
    27   13   14 ar   
    28   13   15 1    
    29   14   78 1    
    30   15   16 1    
    31   15   79 1    
    32   15   80 1    
    33   16   17 1    
    34   17   18 1    
    35   17   81 1    
    36   17   82 1    
    37   18   19 1    
    38   18   22 1    
    39   18   83 1    
    40   19   20 am   BACKBONE|DICT|INTERRES
    41   19   21 2    
    42   20   84 1    
    43   20   85 1    
    44   22   23 am   BACKBONE|DICT|INTERRES
    45   22   86 1    
    46   23   24 2    
    47   23   25 1    
    48   25   26 1    
    49   25   27 1    
    50   25   87 1    
    51   26   88 1    
    52   26   89 1    
    53   26   90 1    
    54   27   28 am   BACKBONE|DICT|INTERRES
    55   27   91 1    
    56   28   29 2    
    57   28   30 1    
    58   30   31 1    
    59   30   32 1    
    60   30   92 1    
    61   31   93 1    
    62   31   94 1    
    63   31   95 1    
    64   32   33 am   BACKBONE|DICT|INTERRES
    65   32   96 1    
    66   33   34 2    
    67   33   35 1    
    68   35   36 1    
    69   35   37 1    
    70   35   97 1    
    71   36   98 1    
    72   36   99 1    
    73   36  100 1    
    74   37   38 am   BACKBONE|DICT|INTERRES
    75   37  101 1    
    76   38   39 2    
    77   38   40 1    
    78   40   41 1    
    79   40   42 1    
    80   40  102 1    
    81   41  103 1    
    82   41  104 1    
    83   41  105 1    
    84   42   43 am   BACKBONE|DICT|INTERRES
    85   42  106 1    
    86   43   44 2    
    87   43   45 1    
    88   45   46 1    
    89   45   49 1    
    90   45  107 1    
    91   46   47 1    
    92   46  108 1    
    93   46  109 1    
    94   47   48 1    
    95   48  110 1    
    96   48  111 1    
    97   49   50 am   BACKBONE|DICT|INTERRES
    98   49  112 1    
    99   50   51 2    
   100   50   52 1    
   101   52   53 1    
   102   52   54 1    
   103   52  113 1    
   104   53  114 1    
   105   53  115 1    
   106   53  116 1    
   107   54   55 am   BACKBONE|DICT|INTERRES
   108   54  117 1    
   109   55   56 2    
   110   55   57 1    
   111   57   58 1    
   112   57   59 1    
   113   57  118 1    
   114   58  119 1    
   115   58  120 1    
   116   58  121 1    
   117   59   60 am   BACKBONE|DICT|INTERRES
   118   59  122 1    
   119   60   61 2    
   120   60   62 1    
   121   62   63 1    
   122   62   64 1    
   123   62  123 1    
   124   63  124 1    
   125   63  125 1    
   126   63  126 1    
   127   64   65 am   BACKBONE|DICT|INTERRES
   128   64  127 1    
   129   65   66 2    
@<TRIPOS>SUBSTRUCTURE
     1 UNK         1 GROUP             0       ****    0 ROOT    
