@<TRIPOS>MOLECULE
3R134
127   129    1
SMALL
USER_CHARGES


@<TRIPOS>ATOM
      1 CA         31.6777  -44.6928  -50.0482 C.3       0 UNK        -0.1968 
      2 C          33.1421  -44.6052  -50.4444 C.2       0 UNK         0.4852 
      3 O          34.0034  -45.0929  -49.7109 O.2       0 UNK        -0.5359 
      4 N          33.4312  -43.9777  -51.5931 N.am      1 UNK        -0.4300 
      5 CA         34.7926  -43.7669  -52.1068 C.3       1 UNK         0.0863 
      6 C6         34.8742  -42.6602  -53.1933 C.3       11 UNK        -0.0953 
      7 S7         33.8767  -41.1769  -52.8034 S.3       11 UNK        -0.2369 
      8 C8         32.7369  -41.0685  -54.2257 C.3       11 UNK         0.0226 
      9 C9         31.9800  -42.3655  -54.4871 C.ar      11 UNK        -0.0699 
     10 C10        30.9508  -42.7761  -53.6336 C.ar      11 UNK        -0.0804 
     11 C11        30.2630  -43.9740  -53.8629 C.ar      11 UNK        -0.0871 
     12 C12        30.6299  -44.7595  -54.9634 C.ar      11 UNK        -0.1008 
     13 C13        31.6370  -44.3497  -55.8400 C.ar      11 UNK        -0.0735 
     14 C14        32.3090  -43.1514  -55.5956 C.ar      11 UNK        -0.0945 
     15 C15        31.9932  -45.1982  -57.0541 C.3       11 UNK         0.0169 
     16 S16        30.5345  -45.6405  -58.0557 S.3       11 UNK        -0.2669 
     17 C17        30.0162  -44.0233  -58.7377 C.3       11 UNK        -0.0850 
     18 CA         29.0670  -43.1926  -57.8148 C.3       10 UNK         0.0855 
     19 C          28.6035  -41.8416  -58.4431 C.2       10 UNK         0.5543 
     20 N          29.4372  -41.1853  -59.2403 N.am      10 UNK        -0.7343 
     21 O          27.5099  -41.3462  -58.1752 O.2       10 UNK        -0.5027 
     22 N          27.9610  -43.9815  -57.2466 N.am      10 UNK        -0.4495 
     23 C          26.9536  -44.5429  -57.9247 C.2       10 UNK         0.4903 
     24 O          26.8068  -44.4789  -59.1480 O.2       10 UNK        -0.4860 
     25 CA         25.9063  -45.2778  -57.0688 C.3       9 UNK         0.0227 
     26 CB         24.6983  -44.3665  -56.7974 C.3       9 UNK        -0.1964 
     27 N          25.4451  -46.5273  -57.6805 N.am      9 UNK        -0.4231 
     28 C          26.2299  -47.5850  -57.9203 C.2       9 UNK         0.5014 
     29 O          27.4373  -47.6138  -57.6868 O.2       9 UNK        -0.5270 
     30 CA         25.5641  -48.8211  -58.5284 C.3       8 UNK         0.0284 
     31 CB         25.6526  -48.7920  -60.0660 C.3       8 UNK        -0.1977 
     32 N          26.2367  -50.0059  -57.9993 N.am      8 UNK        -0.4342 
     33 C          25.7237  -51.2416  -57.9770 C.2       8 UNK         0.5039 
     34 O          24.6217  -51.5354  -58.4430 O.2       8 UNK        -0.5547 
     35 CA         26.5676  -52.3327  -57.3039 C.3       7 UNK         0.0281 
     36 CB         27.7560  -52.7419  -58.1911 C.3       7 UNK        -0.1963 
     37 N          27.0483  -51.8883  -55.9951 N.am      7 UNK        -0.4444 
     38 C          26.3712  -52.0467  -54.8484 C.2       7 UNK         0.5104 
     39 O          25.2918  -52.6347  -54.7695 O.2       7 UNK        -0.5100 
     40 CA         26.9941  -51.4696  -53.5620 C.3       6 UNK         0.0396 
     41 CB         27.7356  -52.5705  -52.7877 C.3       6 UNK        -0.1801 
     42 N          27.9117  -50.3550  -53.8024 N.am      6 UNK        -0.4747 
     43 C          27.5379  -49.1319  -54.2117 C.2       6 UNK         0.5012 
     44 O          26.3628  -48.7966  -54.3636 O.2       6 UNK        -0.5003 
     45 CA         28.6678  -48.1240  -54.5267 C.3       5 UNK         0.0782 
     46 C46        28.9104  -47.1710  -53.3235 C.3       11 UNK        -0.0868 
     47 S47        27.9568  -45.6223  -53.5001 S.3       11 UNK        -0.2515 
     48 C48        29.1448  -44.3736  -52.8948 C.3       11 UNK         0.0199 
     49 N          29.9109  -48.7568  -54.9917 N.am      5 UNK        -0.4607 
     50 C          30.0159  -49.6094  -56.0257 C.2       4 UNK         0.5031 
     51 O          29.0668  -49.9569  -56.7280 O.2       4 UNK        -0.5119 
     52 CA         31.3898  -50.2518  -56.2880 C.3       4 UNK         0.0263 
     53 CB         32.1026  -49.5280  -57.4410 C.3       4 UNK        -0.1967 
     54 N          32.2775  -50.2917  -55.1225 N.am      4 UNK        -0.4237 
     55 C          32.0054  -50.8470  -53.9312 C.2       3 UNK         0.4908 
     56 O          30.9585  -51.4452  -53.6781 O.2       3 UNK        -0.5102 
     57 CA         33.0610  -50.6767  -52.8212 C.3       3 UNK         0.0241 
     58 CB         33.8027  -52.0017  -52.5802 C.3       3 UNK        -0.1971 
     59 N          34.0439  -49.6132  -53.0741 N.am      3 UNK        -0.4139 
     60 C          33.7624  -48.3054  -53.1568 C.2       2 UNK         0.5016 
     61 O          32.6245  -47.8363  -53.0505 O.2       2 UNK        -0.5319 
     62 CA         34.9424  -47.3760  -53.4633 C.3       2 UNK         0.0286 
     63 CB         35.2685  -47.3725  -54.9679 C.3       2 UNK        -0.1963 
     64 N          34.5817  -46.0311  -53.0363 N.am      2 UNK        -0.4790 
     65 C          35.4253  -45.0767  -52.6250 C.2       1 UNK         0.5024 
     66 O          36.6512  -45.1977  -52.6355 O.2       1 UNK        -0.4888 
     67 H67        31.5771  -44.6905  -48.9631 H         1 UNK         0.0892 
     68 H68        31.1129  -43.8451  -50.4345 H         1 UNK         0.0892 
     69 H69        31.2409  -45.6158  -50.4287 H         1 UNK         0.0892 
     70 H70        32.6917  -43.5868  -52.1602 H         1 UNK         0.3107 
     71 H71        35.4027  -43.4352  -51.2636 H         1 UNK         0.0773 
     72 H72        34.5875  -43.0505  -54.1692 H         1 UNK         0.0680 
     73 H73        35.9108  -42.3389  -53.3089 H         1 UNK         0.0680 
     74 H74        32.0223  -40.2648  -54.0431 H         1 UNK         0.0650 
     75 H75        33.3070  -40.7723  -55.1076 H         1 UNK         0.0650 
     76 H76        30.6864  -42.1565  -52.7868 H         1 UNK         0.1397 
     77 H77        30.1218  -45.6860  -55.1785 H         1 UNK         0.1363 
     78 H78        33.0945  -42.8313  -56.2664 H         1 UNK         0.1355 
     79 H79        32.4672  -46.1153  -56.7052 H         1 UNK         0.0707 
     80 H80        32.7234  -44.6938  -57.6887 H         1 UNK         0.0707 
     81 H81        29.5252  -44.2152  -59.6932 H         1 UNK         0.1034 
     82 H82        30.9174  -43.4561  -58.9730 H         1 UNK         0.1034 
     83 H83        29.6461  -42.8807  -56.9475 H         1 UNK         0.0482 
     84 H84        30.3530  -41.5437  -59.4571 H         1 UNK         0.3460 
     85 H85        29.1429  -40.3028  -59.6289 H         1 UNK         0.3460 
     86 H86        27.9773  -44.0759  -56.2419 H         1 UNK         0.2989 
     87 H87        26.3596  -45.5374  -56.1100 H         1 UNK         0.0559 
     88 H88        24.1810  -44.0975  -57.7194 H         1 UNK         0.0848 
     89 H89        25.0112  -43.4374  -56.3186 H         1 UNK         0.0848 
     90 H90        23.9787  -44.8447  -56.1326 H         1 UNK         0.0848 
     91 H91        24.4713  -46.5716  -57.9430 H         1 UNK         0.3144 
     92 H92        24.5162  -48.8422  -58.2212 H         1 UNK         0.0727 
     93 H93        26.6890  -48.7953  -60.4064 H         1 UNK         0.0790 
     94 H94        25.1794  -47.8953  -60.4682 H         1 UNK         0.0790 
     95 H95        25.1505  -49.6504  -60.5124 H         1 UNK         0.0790 
     96 H96        27.1509  -49.8230  -57.5882 H         1 UNK         0.3215 
     97 H97        25.9352  -53.2144  -57.1763 H         1 UNK         0.0863 
     98 H98        28.4273  -51.9069  -58.3928 H         1 UNK         0.0808 
     99 H99        27.4080  -53.1165  -59.1546 H         1 UNK         0.0808 
    100 H100       28.3408  -53.5362  -57.7271 H         1 UNK         0.0808 
    101 H101       27.8937  -51.3255  -55.9934 H         1 UNK         0.3118 
    102 H102       26.1770  -51.1058  -52.9355 H         1 UNK         0.0546 
    103 H103       28.1247  -52.1974  -51.8402 H         1 UNK         0.0828 
    104 H104       28.5740  -52.9707  -53.3595 H         1 UNK         0.0828 
    105 H105       27.0698  -53.4036  -52.5583 H         1 UNK         0.0828 
    106 H106       28.9021  -50.5572  -53.7189 H         1 UNK         0.3005 
    107 H107       28.3217  -47.5331  -55.3747 H         1 UNK         0.1257 
    108 H108       29.9685  -46.9196  -53.2370 H         1 UNK         0.0775 
    109 H109       28.6584  -47.6362  -52.3681 H         1 UNK         0.0775 
    110 H110       28.5722  -43.4827  -52.6322 H         1 UNK         0.0840 
    111 H111       29.5821  -44.7383  -51.9676 H         1 UNK         0.0840 
    112 H112       30.7456  -48.5472  -54.4599 H         1 UNK         0.2987 
    113 H113       31.2068  -51.2848  -56.5908 H         1 UNK         0.0785 
    114 H114       33.0254  -50.0359  -57.7218 H         1 UNK         0.0798 
    115 H115       31.4705  -49.4930  -58.3298 H         1 UNK         0.0798 
    116 H116       32.3492  -48.4988  -57.1793 H         1 UNK         0.0798 
    117 H117       33.1674  -49.8281  -55.2244 H         1 UNK         0.3079 
    118 H118       32.5210  -50.4160  -51.9084 H         1 UNK         0.0794 
    119 H119       34.4852  -51.9273  -51.7333 H         1 UNK         0.0786 
    120 H120       34.3806  -52.3063  -53.4537 H         1 UNK         0.0786 
    121 H121       33.1014  -52.8073  -52.3569 H         1 UNK         0.0786 
    122 H122       35.0034  -49.9103  -53.1852 H         1 UNK         0.3032 
    123 H123       35.8108  -47.7164  -52.8942 H         1 UNK         0.1094 
    124 H124       35.5525  -48.3669  -55.3141 H         1 UNK         0.0794 
    125 H125       34.4145  -47.0483  -55.5633 H         1 UNK         0.0794 
    126 H126       36.1013  -46.7053  -55.1909 H         1 UNK         0.0794 
    127 H127       33.5833  -45.8820  -52.9497 H         1 UNK         0.3016 
@<TRIPOS>BOND
     1    1    2 1    
     2    1   67 1    
     3    1   68 1    
     4    1   69 1    
     5    2    3 2    
     6    2    4 am   BACKBONE|DICT|INTERRES
     7    4    5 1    
     8    4   70 1    
     9    5    6 1    
    10    5   65 1    
    11    5   71 1    
    12    6    7 1    
    13    6   72 1    
    14    6   73 1    
    15    7    8 1    
    16    8    9 1    
    17    8   74 1    
    18    8   75 1    
    19    9   10 ar   
    20    9   14 ar   
    21   10   11 ar   
    22   10   76 1    
    23   11   12 ar   
    24   11   48 1    
    25   12   13 ar   
    26   12   77 1    
    27   13   14 ar   
    28   13   15 1    
    29   14   78 1    
    30   15   16 1    
    31   15   79 1    
    32   15   80 1    
    33   16   17 1    
    34   17   18 1    
    35   17   81 1    
    36   17   82 1    
    37   18   19 1    
    38   18   22 1    
    39   18   83 1    
    40   19   20 am   BACKBONE|DICT|INTERRES
    41   19   21 2    
    42   20   84 1    
    43   20   85 1    
    44   22   23 am   BACKBONE|DICT|INTERRES
    45   22   86 1    
    46   23   24 2    
    47   23   25 1    
    48   25   26 1    
    49   25   27 1    
    50   25   87 1    
    51   26   88 1    
    52   26   89 1    
    53   26   90 1    
    54   27   28 am   BACKBONE|DICT|INTERRES
    55   27   91 1    
    56   28   29 2    
    57   28   30 1    
    58   30   31 1    
    59   30   32 1    
    60   30   92 1    
    61   31   93 1    
    62   31   94 1    
    63   31   95 1    
    64   32   33 am   BACKBONE|DICT|INTERRES
    65   32   96 1    
    66   33   34 2    
    67   33   35 1    
    68   35   36 1    
    69   35   37 1    
    70   35   97 1    
    71   36   98 1    
    72   36   99 1    
    73   36  100 1    
    74   37   38 am   BACKBONE|DICT|INTERRES
    75   37  101 1    
    76   38   39 2    
    77   38   40 1    
    78   40   41 1    
    79   40   42 1    
    80   40  102 1    
    81   41  103 1    
    82   41  104 1    
    83   41  105 1    
    84   42   43 am   BACKBONE|DICT|INTERRES
    85   42  106 1    
    86   43   44 2    
    87   43   45 1    
    88   45   46 1    
    89   45   49 1    
    90   45  107 1    
    91   46   47 1    
    92   46  108 1    
    93   46  109 1    
    94   47   48 1    
    95   48  110 1    
    96   48  111 1    
    97   49   50 am   BACKBONE|DICT|INTERRES
    98   49  112 1    
    99   50   51 2    
   100   50   52 1    
   101   52   53 1    
   102   52   54 1    
   103   52  113 1    
   104   53  114 1    
   105   53  115 1    
   106   53  116 1    
   107   54   55 am   BACKBONE|DICT|INTERRES
   108   54  117 1    
   109   55   56 2    
   110   55   57 1    
   111   57   58 1    
   112   57   59 1    
   113   57  118 1    
   114   58  119 1    
   115   58  120 1    
   116   58  121 1    
   117   59   60 am   BACKBONE|DICT|INTERRES
   118   59  122 1    
   119   60   61 2    
   120   60   62 1    
   121   62   63 1    
   122   62   64 1    
   123   62  123 1    
   124   63  124 1    
   125   63  125 1    
   126   63  126 1    
   127   64   65 am   BACKBONE|DICT|INTERRES
   128   64  127 1    
   129   65   66 2    
@<TRIPOS>SUBSTRUCTURE
     1 UNK         1 GROUP             0       ****    0 ROOT    
