@<TRIPOS>MOLECULE
3R134
127   129    1
SMALL
USER_CHARGES


@<TRIPOS>ATOM
      1 CA         31.9376  -48.9543  -57.2002 C.3       0 UNK        -0.1968 
      2 C          33.0325  -48.3044  -56.3679 C.2       0 UNK         0.4852 
      3 O          34.1786  -48.7538  -56.4111 O.2       0 UNK        -0.5359 
      4 N          32.6764  -47.2580  -55.6098 N.am      1 UNK        -0.4300 
      5 CA         33.5436  -46.4159  -54.7797 C.3       1 UNK         0.0863 
      6 C6         34.4704  -45.4993  -55.6288 C.3       11 UNK        -0.0953 
      7 S7         35.1152  -44.0937  -54.6578 S.3       11 UNK        -0.2369 
      8 C8         34.0248  -42.7307  -55.1810 C.3       11 UNK         0.0226 
      9 C9         32.5585  -43.0257  -54.8970 C.ar      11 UNK        -0.0699 
     10 C10        32.0646  -42.9720  -53.5903 C.ar      11 UNK        -0.0804 
     11 C11        30.7209  -43.2579  -53.3267 C.ar      11 UNK        -0.0871 
     12 C12        29.8688  -43.5947  -54.3838 C.ar      11 UNK        -0.1008 
     13 C13        30.3539  -43.6561  -55.6933 C.ar      11 UNK        -0.0735 
     14 C14        31.6967  -43.3637  -55.9437 C.ar      11 UNK        -0.0945 
     15 C15        29.4431  -44.0572  -56.8422 C.3       11 UNK         0.0169 
     16 S16        28.5702  -42.6257  -57.5432 S.3       11 UNK        -0.2669 
     17 C17        27.0693  -42.5629  -56.5003 C.3       11 UNK        -0.0850 
     18 CA         25.7506  -42.6719  -57.3108 C.3       10 UNK         0.0855 
     19 C          25.4113  -41.3471  -58.0584 C.2       10 UNK         0.5543 
     20 N          25.3077  -41.3352  -59.3821 N.am      10 UNK        -0.7343 
     21 O          25.2232  -40.3139  -57.4204 O.2       10 UNK        -0.5027 
     22 N          25.7147  -43.8883  -58.1431 N.am      10 UNK        -0.4495 
     23 C          24.5937  -44.4736  -58.5833 C.2       10 UNK         0.4903 
     24 O          23.4620  -44.0902  -58.2848 O.2       10 UNK        -0.4860 
     25 CA         24.7388  -45.6758  -59.5357 C.3       9 UNK         0.0227 
     26 CB         24.5292  -45.2255  -60.9913 C.3       9 UNK        -0.1964 
     27 N          26.0069  -46.4096  -59.4402 N.am      9 UNK        -0.4231 
     28 C          26.3966  -47.1352  -58.3837 C.2       9 UNK         0.5014 
     29 O          25.7803  -47.1810  -57.3163 O.2       9 UNK        -0.5270 
     30 CA         27.6667  -47.9798  -58.5712 C.3       8 UNK         0.0284 
     31 CB         28.9399  -47.1256  -58.6921 C.3       8 UNK        -0.1977 
     32 N          27.8029  -48.8819  -57.4338 N.am      8 UNK        -0.4342 
     33 C          28.1989  -50.1583  -57.4764 C.2       8 UNK         0.5039 
     34 O          28.5843  -50.7139  -58.5062 O.2       8 UNK        -0.5547 
     35 CA         28.1587  -50.9619  -56.1598 C.3       7 UNK         0.0281 
     36 CB         29.5187  -51.6135  -55.8494 C.3       7 UNK        -0.1963 
     37 N          27.7226  -50.1642  -55.0064 N.am      7 UNK        -0.4444 
     38 C          26.4393  -49.9225  -54.6958 C.2       7 UNK         0.5104 
     39 O          25.4935  -50.3846  -55.3342 O.2       7 UNK        -0.5100 
     40 CA         26.1409  -49.0241  -53.4790 C.3       6 UNK         0.0396 
     41 CB         25.4946  -49.8475  -52.3523 C.3       6 UNK        -0.1801 
     42 N          27.3150  -48.3342  -52.9401 N.am      6 UNK        -0.4747 
     43 C          27.9119  -47.2629  -53.4842 C.2       6 UNK         0.5012 
     44 O          27.5331  -46.7165  -54.5188 O.2       6 UNK        -0.5003 
     45 CA         29.1772  -46.7457  -52.7665 C.3       5 UNK         0.0782 
     46 C46        28.8063  -45.6521  -51.7375 C.3       11 UNK        -0.0868 
     47 S47        30.2769  -44.8072  -51.0656 S.3       11 UNK        -0.2515 
     48 C48        30.1943  -43.1894  -51.9002 C.3       11 UNK         0.0199 
     49 N          29.9491  -47.8418  -52.1621 N.am      5 UNK        -0.4607 
     50 C          30.5345  -48.8103  -52.8742 C.2       4 UNK         0.5031 
     51 O          30.5157  -48.8481  -54.1067 O.2       4 UNK        -0.5119 
     52 CA         31.1771  -49.9628  -52.0996 C.3       4 UNK         0.0263 
     53 CB         30.1141  -51.0420  -51.8049 C.3       4 UNK        -0.1967 
     54 N          32.2593  -50.4767  -52.9331 N.am      4 UNK        -0.4237 
     55 C          33.1076  -51.4765  -52.6698 C.2       3 UNK         0.4908 
     56 O          33.0558  -52.1961  -51.6721 O.2       3 UNK        -0.5102 
     57 CA         34.2473  -51.6624  -53.6858 C.3       3 UNK         0.0241 
     58 CB         33.7162  -52.1408  -55.0479 C.3       3 UNK        -0.1971 
     59 N          35.0061  -50.4185  -53.8485 N.am      3 UNK        -0.4139 
     60 C          35.8066  -49.9049  -52.9002 C.2       2 UNK         0.5016 
     61 O          36.1058  -50.4963  -51.8619 O.2       2 UNK        -0.5319 
     62 CA         36.3605  -48.4877  -53.1284 C.3       2 UNK         0.0286 
     63 CB         37.7776  -48.5493  -53.7205 C.3       2 UNK        -0.1963 
     64 N          35.5159  -47.6598  -53.9910 N.am      2 UNK        -0.4790 
     65 C          34.2782  -47.2355  -53.6970 C.2       1 UNK         0.5024 
     66 O          33.7077  -47.4788  -52.6335 O.2       1 UNK        -0.4888 
     67 H67        32.0205  -48.6343  -58.2382 H         1 UNK         0.0892 
     68 H68        32.0290  -50.0390  -57.1757 H         1 UNK         0.0892 
     69 H69        30.9440  -48.6905  -56.8387 H         1 UNK         0.0892 
     70 H70        31.6963  -47.0174  -55.5673 H         1 UNK         0.3107 
     71 H71        32.8515  -45.7705  -54.2366 H         1 UNK         0.0773 
     72 H72        35.3046  -46.0495  -56.0659 H         1 UNK         0.0680 
     73 H73        33.9199  -45.1036  -56.4828 H         1 UNK         0.0680 
     74 H74        34.1828  -42.5347  -56.2427 H         1 UNK         0.0650 
     75 H75        34.3196  -41.8214  -54.6555 H         1 UNK         0.0650 
     76 H76        32.7314  -42.7163  -52.7779 H         1 UNK         0.1397 
     77 H77        28.8296  -43.8171  -54.1880 H         1 UNK         0.1363 
     78 H78        32.0735  -43.4086  -56.9565 H         1 UNK         0.1355 
     79 H79        28.7305  -44.8165  -56.5164 H         1 UNK         0.0707 
     80 H80        30.0372  -44.5132  -57.6352 H         1 UNK         0.0707 
     81 H81        27.0945  -43.3701  -55.7678 H         1 UNK         0.1034 
     82 H82        27.0921  -41.6443  -55.9106 H         1 UNK         0.1034 
     83 H83        24.9544  -42.7793  -56.5714 H         1 UNK         0.0482 
     84 H84        25.4641  -42.1766  -59.9120 H         1 UNK         0.3460 
     85 H85        25.0819  -40.4735  -59.8533 H         1 UNK         0.3460 
     86 H86        26.6085  -44.2466  -58.4440 H         1 UNK         0.2989 
     87 H87        23.9392  -46.3759  -59.2842 H         1 UNK         0.0559 
     88 H88        23.5820  -44.6958  -61.1053 H         1 UNK         0.0848 
     89 H89        24.5017  -46.0770  -61.6715 H         1 UNK         0.0848 
     90 H90        25.3199  -44.5529  -61.3258 H         1 UNK         0.0848 
     91 H91        26.5760  -46.4314  -60.2747 H         1 UNK         0.3144 
     92 H92        27.5321  -48.5559  -59.4894 H         1 UNK         0.0727 
     93 H93        29.2439  -46.7343  -57.7231 H         1 UNK         0.0790 
     94 H94        28.8097  -46.2829  -59.3718 H         1 UNK         0.0790 
     95 H95        29.7673  -47.7219  -59.0761 H         1 UNK         0.0790 
     96 H96        27.4162  -48.5162  -56.5714 H         1 UNK         0.3215 
     97 H97        27.4416  -51.7706  -56.3171 H         1 UNK         0.0863 
     98 H98        30.2923  -50.8733  -55.6562 H         1 UNK         0.0808 
     99 H99        29.8605  -52.2277  -56.6835 H         1 UNK         0.0808 
    100 H100       29.4548  -52.2671  -54.9801 H         1 UNK         0.0808 
    101 H101       28.4519  -49.7130  -54.4686 H         1 UNK         0.3118 
    102 H102       25.4214  -48.2700  -53.8052 H         1 UNK         0.0546 
    103 H103       26.1665  -50.6224  -51.9810 H         1 UNK         0.0828 
    104 H104       24.5875  -50.3437  -52.7005 H         1 UNK         0.0828 
    105 H105       25.2103  -49.2158  -51.5106 H         1 UNK         0.0828 
    106 H106       27.7068  -48.7116  -52.0895 H         1 UNK         0.3005 
    107 H107       29.8054  -46.2928  -53.5367 H         1 UNK         0.1257 
    108 H108       28.2530  -46.0861  -50.9026 H         1 UNK         0.0775 
    109 H109       28.1381  -44.9105  -52.1788 H         1 UNK         0.0775 
    110 H110       29.1721  -42.8082  -51.8867 H         1 UNK         0.0840 
    111 H111       30.7839  -42.4738  -51.3249 H         1 UNK         0.0840 
    112 H112       30.0165  -47.8467  -51.1544 H         1 UNK         0.2987 
    113 H113       31.6026  -49.5827  -51.1690 H         1 UNK         0.0785 
    114 H114       29.2720  -50.6244  -51.2519 H         1 UNK         0.0798 
    115 H115       30.5153  -51.8521  -51.1970 H         1 UNK         0.0798 
    116 H116       29.7176  -51.4783  -52.7216 H         1 UNK         0.0798 
    117 H117       32.3771  -49.9470  -53.7869 H         1 UNK         0.3079 
    118 H118       34.9220  -52.4295  -53.2991 H         1 UNK         0.0794 
    119 H119       34.5321  -52.3262  -55.7468 H         1 UNK         0.0786 
    120 H120       33.0456  -51.4141  -55.5050 H         1 UNK         0.0786 
    121 H121       33.1613  -53.0741  -54.9427 H         1 UNK         0.0786 
    122 H122       34.8296  -49.8660  -54.6810 H         1 UNK         0.3032 
    123 H123       36.4152  -48.0020  -52.1514 H         1 UNK         0.1094 
    124 H124       37.7823  -49.0081  -54.7102 H         1 UNK         0.0794 
    125 H125       38.2152  -47.5546  -53.8080 H         1 UNK         0.0794 
    126 H126       38.4407  -49.1381  -53.0849 H         1 UNK         0.0794 
    127 H127       35.8764  -47.4522  -54.9117 H         1 UNK         0.3016 
@<TRIPOS>BOND
     1    1    2 1    
     2    1   67 1    
     3    1   68 1    
     4    1   69 1    
     5    2    3 2    
     6    2    4 am   BACKBONE|DICT|INTERRES
     7    4    5 1    
     8    4   70 1    
     9    5    6 1    
    10    5   65 1    
    11    5   71 1    
    12    6    7 1    
    13    6   72 1    
    14    6   73 1    
    15    7    8 1    
    16    8    9 1    
    17    8   74 1    
    18    8   75 1    
    19    9   10 ar   
    20    9   14 ar   
    21   10   11 ar   
    22   10   76 1    
    23   11   12 ar   
    24   11   48 1    
    25   12   13 ar   
    26   12   77 1    
    27   13   14 ar   
    28   13   15 1    
    29   14   78 1    
    30   15   16 1    
    31   15   79 1    
    32   15   80 1    
    33   16   17 1    
    34   17   18 1    
    35   17   81 1    
    36   17   82 1    
    37   18   19 1    
    38   18   22 1    
    39   18   83 1    
    40   19   20 am   BACKBONE|DICT|INTERRES
    41   19   21 2    
    42   20   84 1    
    43   20   85 1    
    44   22   23 am   BACKBONE|DICT|INTERRES
    45   22   86 1    
    46   23   24 2    
    47   23   25 1    
    48   25   26 1    
    49   25   27 1    
    50   25   87 1    
    51   26   88 1    
    52   26   89 1    
    53   26   90 1    
    54   27   28 am   BACKBONE|DICT|INTERRES
    55   27   91 1    
    56   28   29 2    
    57   28   30 1    
    58   30   31 1    
    59   30   32 1    
    60   30   92 1    
    61   31   93 1    
    62   31   94 1    
    63   31   95 1    
    64   32   33 am   BACKBONE|DICT|INTERRES
    65   32   96 1    
    66   33   34 2    
    67   33   35 1    
    68   35   36 1    
    69   35   37 1    
    70   35   97 1    
    71   36   98 1    
    72   36   99 1    
    73   36  100 1    
    74   37   38 am   BACKBONE|DICT|INTERRES
    75   37  101 1    
    76   38   39 2    
    77   38   40 1    
    78   40   41 1    
    79   40   42 1    
    80   40  102 1    
    81   41  103 1    
    82   41  104 1    
    83   41  105 1    
    84   42   43 am   BACKBONE|DICT|INTERRES
    85   42  106 1    
    86   43   44 2    
    87   43   45 1    
    88   45   46 1    
    89   45   49 1    
    90   45  107 1    
    91   46   47 1    
    92   46  108 1    
    93   46  109 1    
    94   47   48 1    
    95   48  110 1    
    96   48  111 1    
    97   49   50 am   BACKBONE|DICT|INTERRES
    98   49  112 1    
    99   50   51 2    
   100   50   52 1    
   101   52   53 1    
   102   52   54 1    
   103   52  113 1    
   104   53  114 1    
   105   53  115 1    
   106   53  116 1    
   107   54   55 am   BACKBONE|DICT|INTERRES
   108   54  117 1    
   109   55   56 2    
   110   55   57 1    
   111   57   58 1    
   112   57   59 1    
   113   57  118 1    
   114   58  119 1    
   115   58  120 1    
   116   58  121 1    
   117   59   60 am   BACKBONE|DICT|INTERRES
   118   59  122 1    
   119   60   61 2    
   120   60   62 1    
   121   62   63 1    
   122   62   64 1    
   123   62  123 1    
   124   63  124 1    
   125   63  125 1    
   126   63  126 1    
   127   64   65 am   BACKBONE|DICT|INTERRES
   128   64  127 1    
   129   65   66 2    
@<TRIPOS>SUBSTRUCTURE
     1 UNK         1 GROUP             0       ****    0 ROOT    
