@<TRIPOS>MOLECULE
3R134
127   129    1
SMALL
USER_CHARGES


@<TRIPOS>ATOM
      1 CA         36.3788  -47.0441  -55.2668 C.3       0 UNK        -0.1968 
      2 C          35.1377  -47.0007  -54.3897 C.2       0 UNK         0.4852 
      3 O          34.2932  -47.8902  -54.4856 O.2       0 UNK        -0.5359 
      4 N          35.0186  -45.9791  -53.5297 N.am      1 UNK        -0.4300 
      5 CA         33.8895  -45.7585  -52.6112 C.3       1 UNK         0.0863 
      6 C6         34.0296  -44.3892  -51.8993 C.3       11 UNK        -0.0953 
      7 S7         32.4512  -43.7349  -51.2574 S.3       11 UNK        -0.2369 
      8 C8         32.0796  -42.3931  -52.4296 C.3       11 UNK         0.0226 
      9 C9         31.4398  -42.9116  -53.7093 C.ar      11 UNK        -0.0699 
     10 C10        32.2086  -43.1210  -54.8584 C.ar      11 UNK        -0.0804 
     11 C11        31.6086  -43.5534  -56.0466 C.ar      11 UNK        -0.0871 
     12 C12        30.2280  -43.7797  -56.0743 C.ar      11 UNK        -0.1008 
     13 C13        29.4505  -43.5784  -54.9308 C.ar      11 UNK        -0.0735 
     14 C14        30.0628  -43.1464  -53.7515 C.ar      11 UNK        -0.0945 
     15 C15        27.9515  -43.8326  -54.9580 C.3       11 UNK         0.0169 
     16 S16        27.0198  -42.3301  -55.3912 S.3       11 UNK        -0.2669 
     17 C17        26.9580  -42.4358  -57.2148 C.3       11 UNK        -0.0850 
     18 CA         25.5912  -42.9658  -57.7263 C.3       10 UNK         0.0855 
     19 C          25.4842  -42.8772  -59.2779 C.2       10 UNK         0.5543 
     20 N          25.1715  -43.9499  -59.9969 N.am      10 UNK        -0.7343 
     21 O          25.6805  -41.8044  -59.8434 O.2       10 UNK        -0.5027 
     22 N          25.2992  -44.3006  -57.1838 N.am      10 UNK        -0.4495 
     23 C          24.0791  -44.7892  -56.9380 C.2       10 UNK         0.4903 
     24 O          23.0383  -44.1456  -57.0825 O.2       10 UNK        -0.4860 
     25 CA         24.0277  -46.2527  -56.4538 C.3       9 UNK         0.0227 
     26 CB         22.6395  -46.8984  -56.6482 C.3       9 UNK        -0.1964 
     27 N          25.0789  -47.0981  -57.0396 N.am      9 UNK        -0.4231 
     28 C          25.2855  -47.3446  -58.3459 C.2       9 UNK         0.5014 
     29 O          24.6168  -46.8354  -59.2467 O.2       9 UNK        -0.5270 
     30 CA         26.4482  -48.2794  -58.7349 C.3       8 UNK         0.0284 
     31 CB         27.5209  -47.5021  -59.5173 C.3       8 UNK        -0.1977 
     32 N          27.0671  -48.9487  -57.5862 N.am      8 UNK        -0.4342 
     33 C          26.5181  -49.9859  -56.9337 C.2       8 UNK         0.5039 
     34 O          25.4804  -50.5391  -57.3001 O.2       8 UNK        -0.5547 
     35 CA         27.2041  -50.4865  -55.6462 C.3       7 UNK         0.0281 
     36 CB         27.9358  -51.8120  -55.9133 C.3       7 UNK        -0.1963 
     37 N          28.1400  -49.5398  -55.0321 N.am      7 UNK        -0.4444 
     38 C          27.8420  -48.3083  -54.5935 C.2       7 UNK         0.5104 
     39 O          26.7101  -47.8236  -54.6272 O.2       7 UNK        -0.5100 
     40 CA         29.0232  -47.4402  -54.1227 C.3       6 UNK         0.0396 
     41 CB         29.2993  -47.6409  -52.6269 C.3       6 UNK        -0.1801 
     42 N          30.2523  -47.6573  -54.8955 N.am      6 UNK        -0.4747 
     43 C          30.3632  -47.4597  -56.2196 C.2       6 UNK         0.5012 
     44 O          29.4231  -47.0981  -56.9271 O.2       6 UNK        -0.5003 
     45 CA         31.7264  -47.7649  -56.8707 C.3       5 UNK         0.0782 
     46 C46        32.6499  -46.5247  -56.9165 C.3       11 UNK        -0.0868 
     47 S47        32.1491  -45.3078  -58.1764 S.3       11 UNK        -0.2515 
     48 C48        32.4552  -43.7353  -57.3035 C.3       11 UNK         0.0199 
     49 N          32.3883  -48.8831  -56.1979 N.am      5 UNK        -0.4607 
     50 C          32.1219  -50.1718  -56.4300 C.2       4 UNK         0.5031 
     51 O          31.3148  -50.5639  -57.2730 O.2       4 UNK        -0.5119 
     52 CA         32.8750  -51.1960  -55.5642 C.3       4 UNK         0.0263 
     53 CB         34.3663  -51.2433  -55.9373 C.3       4 UNK        -0.1967 
     54 N          32.7376  -50.9892  -54.1175 N.am      4 UNK        -0.4237 
     55 C          31.5848  -50.9188  -53.4395 C.2       3 UNK         0.4908 
     56 O          30.4776  -50.8755  -53.9737 O.2       3 UNK        -0.5102 
     57 CA         31.6546  -50.9145  -51.9022 C.3       3 UNK         0.0241 
     58 CB         31.8161  -52.3463  -51.3548 C.3       3 UNK        -0.1971 
     59 N          32.6421  -49.9968  -51.3199 N.am      3 UNK        -0.4139 
     60 C          33.9797  -50.0530  -51.3522 C.2       2 UNK         0.5016 
     61 O          34.6202  -50.9006  -51.9779 O.2       2 UNK        -0.5319 
     62 CA         34.7150  -48.9430  -50.5737 C.3       2 UNK         0.0286 
     63 CB         36.1606  -49.3391  -50.2216 C.3       2 UNK        -0.1963 
     64 N          34.7415  -47.6933  -51.3335 N.am      2 UNK        -0.4790 
     65 C          33.6816  -46.9155  -51.6016 C.2       1 UNK         0.5024 
     66 O          32.5674  -47.1086  -51.1124 O.2       1 UNK        -0.4888 
     67 H67        37.0463  -46.2048  -55.0731 H         1 UNK         0.0892 
     68 H68        36.0954  -47.0170  -56.3184 H         1 UNK         0.0892 
     69 H69        36.9304  -47.9664  -55.0871 H         1 UNK         0.0892 
     70 H70        35.7518  -45.2851  -53.4918 H         1 UNK         0.3107 
     71 H71        32.9937  -45.7270  -53.2360 H         1 UNK         0.0773 
     72 H72        34.4452  -43.6511  -52.5866 H         1 UNK         0.0680 
     73 H73        34.7426  -44.4501  -51.0748 H         1 UNK         0.0680 
     74 H74        31.3969  -41.6933  -51.9453 H         1 UNK         0.0650 
     75 H75        32.9834  -41.8227  -52.6485 H         1 UNK         0.0650 
     76 H76        33.2728  -42.9312  -54.8295 H         1 UNK         0.1397 
     77 H77        29.7611  -44.1199  -56.9879 H         1 UNK         0.1363 
     78 H78        29.4646  -42.9831  -52.8653 H         1 UNK         0.1355 
     79 H79        27.7151  -44.6413  -55.6508 H         1 UNK         0.0707 
     80 H80        27.6194  -44.1730  -53.9759 H         1 UNK         0.0707 
     81 H81        27.7753  -43.0534  -57.5879 H         1 UNK         0.1034 
     82 H82        27.1443  -41.4320  -57.6015 H         1 UNK         0.1034 
     83 H83        24.8275  -42.2822  -57.3504 H         1 UNK         0.0482 
     84 H84        24.9754  -44.8425  -59.5587 H         1 UNK         0.3460 
     85 H85        25.1040  -43.8629  -60.9983 H         1 UNK         0.3460 
     86 H86        26.0901  -44.9128  -57.0587 H         1 UNK         0.2989 
     87 H87        24.2296  -46.2224  -55.3820 H         1 UNK         0.0559 
     88 H88        22.6252  -47.9253  -56.2830 H         1 UNK         0.0848 
     89 H89        22.3430  -46.9114  -57.6976 H         1 UNK         0.0848 
     90 H90        21.8717  -46.3507  -56.1005 H         1 UNK         0.0848 
     91 H91        25.7035  -47.5305  -56.3647 H         1 UNK         0.3144 
     92 H92        26.0399  -49.0452  -59.3979 H         1 UNK         0.0727 
     93 H93        28.3770  -48.1322  -59.7592 H         1 UNK         0.0790 
     94 H94        27.8841  -46.6382  -58.9601 H         1 UNK         0.0790 
     95 H95        27.1181  -47.1277  -60.4594 H         1 UNK         0.0790 
     96 H96        27.9177  -48.5285  -57.2248 H         1 UNK         0.3215 
     97 H97        26.4117  -50.6743  -54.9187 H         1 UNK         0.0863 
     98 H98        28.3127  -52.2502  -54.9890 H         1 UNK         0.0808 
     99 H99        28.7820  -51.6745  -56.5877 H         1 UNK         0.0808 
    100 H100       27.2693  -52.5460  -56.3684 H         1 UNK         0.0808 
    101 H101       29.0917  -49.8742  -54.8997 H         1 UNK         0.3118 
    102 H102       28.7364  -46.3995  -54.2668 H         1 UNK         0.0546 
    103 H103       28.4047  -47.4392  -52.0363 H         1 UNK         0.0828 
    104 H104       30.0776  -46.9647  -52.2730 H         1 UNK         0.0828 
    105 H105       29.6098  -48.6608  -52.4073 H         1 UNK         0.0828 
    106 H106       31.0601  -47.9949  -54.3934 H         1 UNK         0.3005 
    107 H107       31.5236  -48.0681  -57.9009 H         1 UNK         0.1257 
    108 H108       33.6660  -46.8301  -57.1698 H         1 UNK         0.0775 
    109 H109       32.7145  -46.0555  -55.9335 H         1 UNK         0.0775 
    110 H110       33.5187  -43.6735  -57.0670 H         1 UNK         0.0840 
    111 H111       32.2445  -42.9108  -57.9859 H         1 UNK         0.0840 
    112 H112       33.0901  -48.6376  -55.4974 H         1 UNK         0.2987 
    113 H113       32.4450  -52.1753  -55.7837 H         1 UNK         0.0785 
    114 H114       34.8799  -50.3182  -55.6730 H         1 UNK         0.0798 
    115 H115       34.4977  -51.3961  -57.0095 H         1 UNK         0.0798 
    116 H116       34.8749  -52.0627  -55.4293 H         1 UNK         0.0798 
    117 H117       33.5922  -50.9932  -53.5651 H         1 UNK         0.3079 
    118 H118       30.6873  -50.5538  -51.5508 H         1 UNK         0.0794 
    119 H119       32.7581  -52.8006  -51.6634 H         1 UNK         0.0786 
    120 H120       31.0140  -52.9919  -51.7153 H         1 UNK         0.0786 
    121 H121       31.7779  -52.3609  -50.2656 H         1 UNK         0.0786 
    122 H122       32.2482  -49.1699  -50.8830 H         1 UNK         0.3032 
    123 H123       34.1766  -48.7744  -49.6380 H         1 UNK         0.1094 
    124 H124       36.7710  -49.4855  -51.1139 H         1 UNK         0.0794 
    125 H125       36.6421  -48.5784  -49.6069 H         1 UNK         0.0794 
    126 H126       36.1817  -50.2719  -49.6565 H         1 UNK         0.0794 
    127 H127       35.6066  -47.4780  -51.8067 H         1 UNK         0.3016 
@<TRIPOS>BOND
     1    1    2 1    
     2    1   67 1    
     3    1   68 1    
     4    1   69 1    
     5    2    3 2    
     6    2    4 am   BACKBONE|DICT|INTERRES
     7    4    5 1    
     8    4   70 1    
     9    5    6 1    
    10    5   65 1    
    11    5   71 1    
    12    6    7 1    
    13    6   72 1    
    14    6   73 1    
    15    7    8 1    
    16    8    9 1    
    17    8   74 1    
    18    8   75 1    
    19    9   10 ar   
    20    9   14 ar   
    21   10   11 ar   
    22   10   76 1    
    23   11   12 ar   
    24   11   48 1    
    25   12   13 ar   
    26   12   77 1    
    27   13   14 ar   
    28   13   15 1    
    29   14   78 1    
    30   15   16 1    
    31   15   79 1    
    32   15   80 1    
    33   16   17 1    
    34   17   18 1    
    35   17   81 1    
    36   17   82 1    
    37   18   19 1    
    38   18   22 1    
    39   18   83 1    
    40   19   20 am   BACKBONE|DICT|INTERRES
    41   19   21 2    
    42   20   84 1    
    43   20   85 1    
    44   22   23 am   BACKBONE|DICT|INTERRES
    45   22   86 1    
    46   23   24 2    
    47   23   25 1    
    48   25   26 1    
    49   25   27 1    
    50   25   87 1    
    51   26   88 1    
    52   26   89 1    
    53   26   90 1    
    54   27   28 am   BACKBONE|DICT|INTERRES
    55   27   91 1    
    56   28   29 2    
    57   28   30 1    
    58   30   31 1    
    59   30   32 1    
    60   30   92 1    
    61   31   93 1    
    62   31   94 1    
    63   31   95 1    
    64   32   33 am   BACKBONE|DICT|INTERRES
    65   32   96 1    
    66   33   34 2    
    67   33   35 1    
    68   35   36 1    
    69   35   37 1    
    70   35   97 1    
    71   36   98 1    
    72   36   99 1    
    73   36  100 1    
    74   37   38 am   BACKBONE|DICT|INTERRES
    75   37  101 1    
    76   38   39 2    
    77   38   40 1    
    78   40   41 1    
    79   40   42 1    
    80   40  102 1    
    81   41  103 1    
    82   41  104 1    
    83   41  105 1    
    84   42   43 am   BACKBONE|DICT|INTERRES
    85   42  106 1    
    86   43   44 2    
    87   43   45 1    
    88   45   46 1    
    89   45   49 1    
    90   45  107 1    
    91   46   47 1    
    92   46  108 1    
    93   46  109 1    
    94   47   48 1    
    95   48  110 1    
    96   48  111 1    
    97   49   50 am   BACKBONE|DICT|INTERRES
    98   49  112 1    
    99   50   51 2    
   100   50   52 1    
   101   52   53 1    
   102   52   54 1    
   103   52  113 1    
   104   53  114 1    
   105   53  115 1    
   106   53  116 1    
   107   54   55 am   BACKBONE|DICT|INTERRES
   108   54  117 1    
   109   55   56 2    
   110   55   57 1    
   111   57   58 1    
   112   57   59 1    
   113   57  118 1    
   114   58  119 1    
   115   58  120 1    
   116   58  121 1    
   117   59   60 am   BACKBONE|DICT|INTERRES
   118   59  122 1    
   119   60   61 2    
   120   60   62 1    
   121   62   63 1    
   122   62   64 1    
   123   62  123 1    
   124   63  124 1    
   125   63  125 1    
   126   63  126 1    
   127   64   65 am   BACKBONE|DICT|INTERRES
   128   64  127 1    
   129   65   66 2    
@<TRIPOS>SUBSTRUCTURE
     1 UNK         1 GROUP             0       ****    0 ROOT    
