@<TRIPOS>MOLECULE
3R134
127   129    1
SMALL
USER_CHARGES


@<TRIPOS>ATOM
      1 CA         38.1794  -46.7073  -50.9240 C.3       0 UNK        -0.1968 
      2 C          36.8288  -46.2606  -51.4607 C.2       0 UNK         0.4852 
      3 O          36.0685  -45.6331  -50.7262 O.2       0 UNK        -0.5359 
      4 N          36.5289  -46.6129  -52.7191 N.am      1 UNK        -0.4300 
      5 CA         35.3612  -46.2790  -53.5557 C.3       1 UNK         0.0863 
      6 C6         35.4231  -44.8622  -54.1886 C.3       11 UNK        -0.0953 
      7 S7         35.1061  -43.4677  -53.0559 S.3       11 UNK        -0.2369 
      8 C8         34.2877  -42.2750  -54.1630 C.3       11 UNK         0.0226 
      9 C9         32.8717  -42.6979  -54.5319 C.ar      11 UNK        -0.0699 
     10 C10        31.8826  -42.7518  -53.5475 C.ar      11 UNK        -0.0804 
     11 C11        30.5762  -43.1246  -53.8710 C.ar      11 UNK        -0.0871 
     12 C12        30.2622  -43.4259  -55.2002 C.ar      11 UNK        -0.1008 
     13 C13        31.2385  -43.3815  -56.2040 C.ar      11 UNK        -0.0735 
     14 C14        32.5429  -43.0137  -55.8545 C.ar      11 UNK        -0.0945 
     15 C15        30.9442  -43.7088  -57.6723 C.3       11 UNK         0.0169 
     16 S16        29.3573  -44.5513  -58.0151 S.3       11 UNK        -0.2669 
     17 C17        28.1762  -43.1502  -58.0108 C.3       11 UNK        -0.0850 
     18 CA         26.7318  -43.5442  -58.4293 C.3       10 UNK         0.0855 
     19 C          26.5602  -43.6192  -59.9769 C.2       10 UNK         0.5543 
     20 N          26.0509  -44.7011  -60.5542 N.am      10 UNK        -0.7343 
     21 O          26.8802  -42.6585  -60.6728 O.2       10 UNK        -0.5027 
     22 N          26.2629  -44.7275  -57.6922 N.am      10 UNK        -0.4495 
     23 C          24.9875  -45.0414  -57.4355 C.2       10 UNK         0.4903 
     24 O          24.0371  -44.2949  -57.6751 O.2       10 UNK        -0.4860 
     25 CA         24.7462  -46.4428  -56.8316 C.3       9 UNK         0.0227 
     26 CB         23.2763  -46.9013  -56.9422 C.3       9 UNK        -0.1964 
     27 N          25.6567  -47.4648  -57.3778 N.am      9 UNK        -0.4231 
     28 C          25.7861  -47.7973  -58.6734 C.2       9 UNK         0.5014 
     29 O          25.0950  -47.3131  -59.5705 O.2       9 UNK        -0.5270 
     30 CA         26.8963  -48.7789  -59.0722 C.3       8 UNK         0.0284 
     31 CB         28.0761  -48.0093  -59.6914 C.3       8 UNK        -0.1977 
     32 N          27.3908  -49.6055  -57.9690 N.am      8 UNK        -0.4342 
     33 C          26.9242  -50.8301  -57.6921 C.2       8 UNK         0.5039 
     34 O          25.9327  -51.3238  -58.2321 O.2       8 UNK        -0.5547 
     35 CA         27.7225  -51.6709  -56.6826 C.3       7 UNK         0.0281 
     36 CB         29.0625  -52.1202  -57.2893 C.3       7 UNK        -0.1963 
     37 N          27.9615  -50.9799  -55.4168 N.am      7 UNK        -0.4444 
     38 C          27.0205  -50.7640  -54.4879 C.2       7 UNK         0.5104 
     39 O          25.8487  -51.1267  -54.5984 O.2       7 UNK        -0.5100 
     40 CA         27.4572  -50.0195  -53.2138 C.3       6 UNK         0.0396 
     41 CB         28.0889  -50.9939  -52.2072 C.3       6 UNK        -0.1801 
     42 N          28.3857  -48.9176  -53.4698 N.am      6 UNK        -0.4747 
     43 C          28.1037  -47.8357  -54.2103 C.2       6 UNK         0.5012 
     44 O          27.0252  -47.6483  -54.7726 O.2       6 UNK        -0.5003 
     45 CA         29.2457  -46.8194  -54.3980 C.3       5 UNK         0.0782 
     46 C46        29.5081  -46.0247  -53.0912 C.3       11 UNK        -0.0868 
     47 S47        28.3694  -44.6092  -52.9211 S.3       11 UNK        -0.2515 
     48 C48        29.5213  -43.1987  -52.7687 C.3       11 UNK         0.0199 
     49 N          30.4598  -47.4575  -54.9137 N.am      5 UNK        -0.4607 
     50 C          30.5377  -48.1901  -56.0344 C.2       4 UNK         0.5031 
     51 O          29.6023  -48.3662  -56.8124 O.2       4 UNK        -0.5119 
     52 CA         31.8654  -48.9149  -56.2950 C.3       4 UNK         0.0263 
     53 CB         32.8809  -47.9793  -56.9716 C.3       4 UNK        -0.1967 
     54 N          32.4239  -49.4770  -55.0625 N.am      4 UNK        -0.4237 
     55 C          31.8607  -50.4786  -54.3684 C.2       3 UNK         0.4908 
     56 O          30.8532  -51.0839  -54.7334 O.2       3 UNK        -0.5102 
     57 CA         32.5018  -50.8327  -53.0162 C.3       3 UNK         0.0241 
     58 CB         33.7315  -51.7334  -53.2139 C.3       3 UNK        -0.1971 
     59 N          32.8762  -49.6438  -52.2462 N.am      3 UNK        -0.4139 
     60 C          32.0021  -48.7576  -51.7468 C.2       2 UNK         0.5016 
     61 O          30.7803  -48.8885  -51.8178 O.2       2 UNK        -0.5319 
     62 CA         32.5901  -47.4887  -51.1022 C.3       2 UNK         0.0286 
     63 CB         32.8370  -47.7108  -49.6024 C.3       2 UNK        -0.1963 
     64 N          33.8299  -47.0230  -51.7362 N.am      2 UNK        -0.4790 
     65 C          33.9582  -46.6562  -53.0182 C.2       1 UNK         0.5024 
     66 O          33.0132  -46.6796  -53.8057 O.2       1 UNK        -0.4888 
     67 H67        38.0443  -47.3410  -50.0480 H         1 UNK         0.0892 
     68 H68        38.7497  -47.2678  -51.6634 H         1 UNK         0.0892 
     69 H69        38.7689  -45.8404  -50.6296 H         1 UNK         0.0892 
     70 H70        37.2175  -47.1671  -53.2079 H         1 UNK         0.3107 
     71 H71        35.4809  -46.9616  -54.3976 H         1 UNK         0.0773 
     72 H72        34.7145  -44.8106  -55.0164 H         1 UNK         0.0680 
     73 H73        36.4035  -44.7056  -54.6405 H         1 UNK         0.0680 
     74 H74        34.9008  -42.1340  -55.0539 H         1 UNK         0.0650 
     75 H75        34.2475  -41.3067  -53.6631 H         1 UNK         0.0650 
     76 H76        32.1387  -42.5099  -52.5247 H         1 UNK         0.1397 
     77 H77        29.2506  -43.7147  -55.4328 H         1 UNK         0.1363 
     78 H78        33.3067  -42.9699  -56.6190 H         1 UNK         0.1355 
     79 H79        31.7386  -44.3583  -58.0450 H         1 UNK         0.0707 
     80 H80        30.9988  -42.7913  -58.2608 H         1 UNK         0.0707 
     81 H81        28.1406  -42.7160  -57.0125 H         1 UNK         0.1034 
     82 H82        28.5652  -42.3525  -58.6471 H         1 UNK         0.1034 
     83 H83        26.0911  -42.7129  -58.1286 H         1 UNK         0.0482 
     84 H84        25.9460  -44.7126  -61.5557 H         1 UNK         0.3460 
     85 H85        25.7420  -45.5004  -60.0122 H         1 UNK         0.3460 
     86 H86        26.9790  -45.4060  -57.4773 H         1 UNK         0.2989 
     87 H87        24.9783  -46.3539  -55.7701 H         1 UNK         0.0559 
     88 H88        22.9442  -46.9551  -57.9794 H         1 UNK         0.0848 
     89 H89        22.6109  -46.2093  -56.4243 H         1 UNK         0.0848 
     90 H90        23.1330  -47.8839  -56.4926 H         1 UNK         0.0848 
     91 H91        26.2818  -47.8863  -56.6977 H         1 UNK         0.3144 
     92 H92        26.4863  -49.4260  -59.8512 H         1 UNK         0.0727 
     93 H93        28.5133  -47.3029  -58.9860 H         1 UNK         0.0790 
     94 H94        27.7569  -47.4381  -60.5639 H         1 UNK         0.0790 
     95 H95        28.8653  -48.6862  -60.0185 H         1 UNK         0.0790 
     96 H96        28.2100  -49.2525  -57.4712 H         1 UNK         0.3215 
     97 H97        27.1390  -52.5696  -56.4699 H         1 UNK         0.0863 
     98 H98        29.5886  -52.8038  -56.6225 H         1 UNK         0.0808 
     99 H99        29.7225  -51.2747  -57.4864 H         1 UNK         0.0808 
    100 H100       28.9091  -52.6431  -58.2343 H         1 UNK         0.0808 
    101 H101       28.9174  -50.7013  -55.2164 H         1 UNK         0.3118 
    102 H102       26.5618  -49.5928  -52.7572 H         1 UNK         0.0546 
    103 H103       27.4089  -51.8151  -51.9773 H         1 UNK         0.0828 
    104 H104       28.3250  -50.4948  -51.2672 H         1 UNK         0.0828 
    105 H105       29.0112  -51.4302  -52.5930 H         1 UNK         0.0828 
    106 H106       29.2983  -48.9752  -53.0218 H         1 UNK         0.3005 
    107 H107       28.9302  -46.1242  -55.1786 H         1 UNK         0.1257 
    108 H108       30.5345  -45.6577  -53.0772 H         1 UNK         0.0775 
    109 H109       29.4189  -46.6501  -52.2016 H         1 UNK         0.0775 
    110 H110       28.9448  -42.2728  -52.7725 H         1 UNK         0.0840 
    111 H111       30.0000  -43.2598  -51.7899 H         1 UNK         0.0840 
    112 H112       31.3093  -47.3182  -54.3744 H         1 UNK         0.2987 
    113 H113       31.6640  -49.7429  -56.9779 H         1 UNK         0.0785 
    114 H114       33.1088  -47.1062  -56.3605 H         1 UNK         0.0798 
    115 H115       32.4903  -47.6113  -57.9214 H         1 UNK         0.0798 
    116 H116       33.8168  -48.4955  -57.1852 H         1 UNK         0.0798 
    117 H117       33.2186  -48.9989  -54.6661 H         1 UNK         0.3079 
    118 H118       31.7616  -51.3883  -52.4359 H         1 UNK         0.0794 
    119 H119       34.5241  -51.2265  -53.7658 H         1 UNK         0.0786 
    120 H120       33.4687  -52.6326  -53.7733 H         1 UNK         0.0786 
    121 H121       34.1426  -52.0581  -52.2578 H         1 UNK         0.0786 
    122 H122       33.8615  -49.4588  -52.1272 H         1 UNK         0.3032 
    123 H123       31.8482  -46.6955  -51.2121 H         1 UNK         0.1094 
    124 H124       33.1634  -46.7919  -49.1146 H         1 UNK         0.0794 
    125 H125       31.9243  -48.0360  -49.1006 H         1 UNK         0.0794 
    126 H126       33.5971  -48.4727  -49.4258 H         1 UNK         0.0794 
    127 H127       34.6325  -46.8614  -51.1353 H         1 UNK         0.3016 
@<TRIPOS>BOND
     1    1    2 1    
     2    1   67 1    
     3    1   68 1    
     4    1   69 1    
     5    2    3 2    
     6    2    4 am   BACKBONE|DICT|INTERRES
     7    4    5 1    
     8    4   70 1    
     9    5    6 1    
    10    5   65 1    
    11    5   71 1    
    12    6    7 1    
    13    6   72 1    
    14    6   73 1    
    15    7    8 1    
    16    8    9 1    
    17    8   74 1    
    18    8   75 1    
    19    9   10 ar   
    20    9   14 ar   
    21   10   11 ar   
    22   10   76 1    
    23   11   12 ar   
    24   11   48 1    
    25   12   13 ar   
    26   12   77 1    
    27   13   14 ar   
    28   13   15 1    
    29   14   78 1    
    30   15   16 1    
    31   15   79 1    
    32   15   80 1    
    33   16   17 1    
    34   17   18 1    
    35   17   81 1    
    36   17   82 1    
    37   18   19 1    
    38   18   22 1    
    39   18   83 1    
    40   19   20 am   BACKBONE|DICT|INTERRES
    41   19   21 2    
    42   20   84 1    
    43   20   85 1    
    44   22   23 am   BACKBONE|DICT|INTERRES
    45   22   86 1    
    46   23   24 2    
    47   23   25 1    
    48   25   26 1    
    49   25   27 1    
    50   25   87 1    
    51   26   88 1    
    52   26   89 1    
    53   26   90 1    
    54   27   28 am   BACKBONE|DICT|INTERRES
    55   27   91 1    
    56   28   29 2    
    57   28   30 1    
    58   30   31 1    
    59   30   32 1    
    60   30   92 1    
    61   31   93 1    
    62   31   94 1    
    63   31   95 1    
    64   32   33 am   BACKBONE|DICT|INTERRES
    65   32   96 1    
    66   33   34 2    
    67   33   35 1    
    68   35   36 1    
    69   35   37 1    
    70   35   97 1    
    71   36   98 1    
    72   36   99 1    
    73   36  100 1    
    74   37   38 am   BACKBONE|DICT|INTERRES
    75   37  101 1    
    76   38   39 2    
    77   38   40 1    
    78   40   41 1    
    79   40   42 1    
    80   40  102 1    
    81   41  103 1    
    82   41  104 1    
    83   41  105 1    
    84   42   43 am   BACKBONE|DICT|INTERRES
    85   42  106 1    
    86   43   44 2    
    87   43   45 1    
    88   45   46 1    
    89   45   49 1    
    90   45  107 1    
    91   46   47 1    
    92   46  108 1    
    93   46  109 1    
    94   47   48 1    
    95   48  110 1    
    96   48  111 1    
    97   49   50 am   BACKBONE|DICT|INTERRES
    98   49  112 1    
    99   50   51 2    
   100   50   52 1    
   101   52   53 1    
   102   52   54 1    
   103   52  113 1    
   104   53  114 1    
   105   53  115 1    
   106   53  116 1    
   107   54   55 am   BACKBONE|DICT|INTERRES
   108   54  117 1    
   109   55   56 2    
   110   55   57 1    
   111   57   58 1    
   112   57   59 1    
   113   57  118 1    
   114   58  119 1    
   115   58  120 1    
   116   58  121 1    
   117   59   60 am   BACKBONE|DICT|INTERRES
   118   59  122 1    
   119   60   61 2    
   120   60   62 1    
   121   62   63 1    
   122   62   64 1    
   123   62  123 1    
   124   63  124 1    
   125   63  125 1    
   126   63  126 1    
   127   64   65 am   BACKBONE|DICT|INTERRES
   128   64  127 1    
   129   65   66 2    
@<TRIPOS>SUBSTRUCTURE
     1 UNK         1 GROUP             0       ****    0 ROOT    
