@<TRIPOS>MOLECULE
3R134
127   129    1
SMALL
USER_CHARGES


@<TRIPOS>ATOM
      1 CA         32.9774  -42.2720  -51.6480 C.3       0 UNK        -0.1968 
      2 C          34.2225  -43.0240  -52.0943 C.2       0 UNK         0.4852 
      3 O          35.2868  -42.8525  -51.4971 O.2       0 UNK        -0.5359 
      4 N          34.0998  -43.8382  -53.1498 N.am      1 UNK        -0.4300 
      5 CA         35.1752  -44.6636  -53.7038 C.3       1 UNK         0.0863 
      6 C6         34.9532  -44.9293  -55.2190 C.3       11 UNK        -0.0953 
      7 S7         33.7698  -46.2583  -55.6309 S.3       11 UNK        -0.2369 
      8 C8         32.3014  -45.3437  -56.1971 C.3       11 UNK         0.0226 
      9 C9         31.4452  -44.7367  -55.0869 C.ar      11 UNK        -0.0699 
     10 C10        31.3446  -45.3167  -53.8139 C.ar      11 UNK        -0.0804 
     11 C11        30.5307  -44.7422  -52.8302 C.ar      11 UNK        -0.0871 
     12 C12        29.7870  -43.6003  -53.1390 C.ar      11 UNK        -0.1008 
     13 C13        29.8702  -43.0160  -54.4045 C.ar      11 UNK        -0.0735 
     14 C14        30.7070  -43.5834  -55.3685 C.ar      11 UNK        -0.0945 
     15 C15        29.0700  -41.7593  -54.7134 C.3       11 UNK         0.0169 
     16 S16        27.4246  -42.1571  -55.3821 S.3       11 UNK        -0.2669 
     17 C17        27.7908  -42.2716  -57.1656 C.3       11 UNK        -0.0850 
     18 CA         26.5920  -42.8058  -57.9906 C.3       10 UNK         0.0855 
     19 C          26.8539  -42.6306  -59.5173 C.2       10 UNK         0.5543 
     20 N          26.9497  -43.6877  -60.3152 N.am      10 UNK        -0.7343 
     21 O          26.9690  -41.5019  -59.9886 O.2       10 UNK        -0.5027 
     22 N          26.2248  -44.1702  -57.5808 N.am      10 UNK        -0.4495 
     23 C          25.0652  -44.7742  -57.8682 C.2       10 UNK         0.4903 
     24 O          24.1192  -44.2082  -58.4190 O.2       10 UNK        -0.4860 
     25 CA         24.9546  -46.2648  -57.4838 C.3       9 UNK         0.0227 
     26 CB         23.8664  -47.0067  -58.2872 C.3       9 UNK        -0.1964 
     27 N          26.2259  -46.9981  -57.5617 N.am      9 UNK        -0.4231 
     28 C          27.0365  -47.1206  -58.6256 C.2       9 UNK         0.5014 
     29 O          26.8541  -46.5540  -59.7040 O.2       9 UNK        -0.5270 
     30 CA         28.2653  -48.0291  -58.4540 C.3       8 UNK         0.0284 
     31 CB         29.3754  -47.3030  -57.6789 C.3       8 UNK        -0.1977 
     32 N          27.9446  -49.2926  -57.7875 N.am      8 UNK        -0.4342 
     33 C          27.1457  -50.2434  -58.2956 C.2       8 UNK         0.5039 
     34 O          26.6473  -50.1987  -59.4209 O.2       8 UNK        -0.5547 
     35 CA         26.8371  -51.4414  -57.3861 C.3       7 UNK         0.0281 
     36 CB         27.9684  -52.4801  -57.4469 C.3       7 UNK        -0.1963 
     37 N          26.6214  -51.0116  -56.0031 N.am      7 UNK        -0.4444 
     38 C          25.4737  -50.4815  -55.5555 C.2       7 UNK         0.5104 
     39 O          24.4538  -50.3801  -56.2375 O.2       7 UNK        -0.5100 
     40 CA         25.4528  -49.9722  -54.1032 C.3       6 UNK         0.0396 
     41 CB         24.9271  -51.0657  -53.1599 C.3       6 UNK        -0.1801 
     42 N          26.7584  -49.5089  -53.6265 N.am      6 UNK        -0.4747 
     43 C          27.3843  -48.4050  -54.0613 C.2       6 UNK         0.5012 
     44 O          26.9258  -47.6504  -54.9180 O.2       6 UNK        -0.5003 
     45 CA         28.7795  -48.1300  -53.4701 C.3       5 UNK         0.0782 
     46 C46        28.6565  -47.3569  -52.1328 C.3       11 UNK        -0.0868 
     47 S47        30.2742  -47.1053  -51.3244 S.3       11 UNK        -0.2515 
     48 C48        30.4861  -45.3003  -51.4111 C.3       11 UNK         0.0199 
     49 N          29.5796  -49.3515  -53.3237 N.am      5 UNK        -0.4607 
     50 C          29.9332  -50.1870  -54.3055 C.2       4 UNK         0.5031 
     51 O          29.5399  -50.0897  -55.4700 O.2       4 UNK        -0.5119 
     52 CA         30.8812  -51.3308  -53.9063 C.3       4 UNK         0.0263 
     53 CB         30.3536  -52.6899  -54.3962 C.3       4 UNK        -0.1967 
     54 N          32.2374  -51.1225  -54.4180 N.am      4 UNK        -0.4237 
     55 C          33.0477  -50.1110  -54.0748 C.2       3 UNK         0.4908 
     56 O          32.7439  -49.2369  -53.2605 O.2       3 UNK        -0.5102 
     57 CA         34.4246  -50.0872  -54.7642 C.3       3 UNK         0.0241 
     58 CB         34.2845  -49.8653  -56.2818 C.3       3 UNK        -0.1971 
     59 N          35.2942  -49.0486  -54.2016 N.am      3 UNK        -0.4139 
     60 C          35.9996  -49.1783  -53.0687 C.2       2 UNK         0.5016 
     61 O          36.0422  -50.2196  -52.4106 O.2       2 UNK        -0.5319 
     62 CA         36.8267  -47.9673  -52.5906 C.3       2 UNK         0.0286 
     63 CB         38.3261  -48.2177  -52.8261 C.3       2 UNK        -0.1963 
     64 N          36.4567  -46.6979  -53.2265 N.am      2 UNK        -0.4790 
     65 C          35.4024  -45.9498  -52.8722 C.2       1 UNK         0.5024 
     66 O          34.6328  -46.2528  -51.9571 O.2       1 UNK        -0.4888 
     67 H67        33.2272  -41.2405  -51.4011 H         1 UNK         0.0892 
     68 H68        32.2184  -42.2518  -52.4292 H         1 UNK         0.0892 
     69 H69        32.5503  -42.7410  -50.7624 H         1 UNK         0.0892 
     70 H70        33.1895  -43.9806  -53.5666 H         1 UNK         0.3107 
     71 H71        36.0976  -44.0841  -53.6213 H         1 UNK         0.0773 
     72 H72        34.6578  -44.0077  -55.7232 H         1 UNK         0.0680 
     73 H73        35.9039  -45.2054  -55.6775 H         1 UNK         0.0680 
     74 H74        31.6791  -46.0363  -56.7607 H         1 UNK         0.0650 
     75 H75        32.6185  -44.5748  -56.9032 H         1 UNK         0.0650 
     76 H76        31.9076  -46.2099  -53.5757 H         1 UNK         0.1397 
     77 H77        29.1530  -43.1498  -52.3873 H         1 UNK         0.1363 
     78 H78        30.7792  -43.1281  -56.3464 H         1 UNK         0.1355 
     79 H79        28.9423  -41.1722  -53.8026 H         1 UNK         0.0707 
     80 H80        29.6142  -41.1187  -55.4091 H         1 UNK         0.0707 
     81 H81        28.0782  -41.2740  -57.5048 H         1 UNK         0.1034 
     82 H82        28.6615  -42.9096  -57.3195 H         1 UNK         0.1034 
     83 H83        25.7355  -42.1660  -57.7690 H         1 UNK         0.0482 
     84 H84        27.1154  -43.5442  -61.2982 H         1 UNK         0.3460 
     85 H85        26.8501  -44.6334  -59.9581 H         1 UNK         0.3460 
     86 H86        26.9408  -44.7034  -57.1113 H         1 UNK         0.2989 
     87 H87        24.6610  -46.2846  -56.4334 H         1 UNK         0.0559 
     88 H88        22.8860  -46.5533  -58.1361 H         1 UNK         0.0848 
     89 H89        23.7901  -48.0498  -57.9793 H         1 UNK         0.0848 
     90 H90        24.0740  -46.9880  -59.3577 H         1 UNK         0.0848 
     91 H91        26.5161  -47.4356  -56.6882 H         1 UNK         0.3144 
     92 H92        28.6451  -48.2666  -59.4499 H         1 UNK         0.0727 
     93 H93        29.0644  -47.0416  -56.6671 H         1 UNK         0.0790 
     94 H94        29.6581  -46.3777  -58.1830 H         1 UNK         0.0790 
     95 H95        30.2711  -47.9201  -57.6028 H         1 UNK         0.0790 
     96 H96        28.3782  -49.4600  -56.8830 H         1 UNK         0.3215 
     97 H97        25.9245  -51.9179  -57.7519 H         1 UNK         0.0863 
     98 H98        27.7813  -53.3163  -56.7731 H         1 UNK         0.0808 
     99 H99        28.9333  -52.0451  -57.1880 H         1 UNK         0.0808 
    100 H100       28.0613  -52.8891  -58.4538 H         1 UNK         0.0808 
    101 H101       27.4270  -51.0103  -55.3930 H         1 UNK         0.3118 
    102 H102       24.7616  -49.1275  -54.0624 H         1 UNK         0.0546 
    103 H103       25.5853  -51.9352  -53.1402 H         1 UNK         0.0828 
    104 H104       23.9415  -51.4112  -53.4752 H         1 UNK         0.0828 
    105 H105       24.8264  -50.6959  -52.1394 H         1 UNK         0.0828 
    106 H106       27.2176  -50.0734  -52.9257 H         1 UNK         0.3005 
    107 H107       29.3070  -47.4914  -54.1821 H         1 UNK         0.1257 
    108 H108       28.0216  -47.8994  -51.4294 H         1 UNK         0.0775 
    109 H109       28.1735  -46.3909  -52.2941 H         1 UNK         0.0775 
    110 H110       29.6889  -44.8311  -50.8321 H         1 UNK         0.0840 
    111 H111       31.4203  -45.0423  -50.9109 H         1 UNK         0.0840 
    112 H112       30.0035  -49.4745  -52.4148 H         1 UNK         0.2987 
    113 H113       30.9390  -51.3710  -52.8163 H         1 UNK         0.0785 
    114 H114       29.3211  -52.8486  -54.0816 H         1 UNK         0.0798 
    115 H115       30.9438  -53.5117  -53.9904 H         1 UNK         0.0798 
    116 H116       30.3808  -52.7671  -55.4830 H         1 UNK         0.0798 
    117 H117       32.5569  -51.7811  -55.1132 H         1 UNK         0.3079 
    118 H118       34.8975  -51.0587  -54.6043 H         1 UNK         0.0794 
    119 H119       35.2567  -49.7384  -56.7585 H         1 UNK         0.0786 
    120 H120       33.6800  -48.9887  -56.5127 H         1 UNK         0.0786 
    121 H121       33.8039  -50.7184  -56.7616 H         1 UNK         0.0786 
    122 H122       35.2531  -48.1388  -54.6384 H         1 UNK         0.3032 
    123 H123       36.6636  -47.8780  -51.5138 H         1 UNK         0.1094 
    124 H124       38.5579  -48.3173  -53.8873 H         1 UNK         0.0794 
    125 H125       38.9328  -47.4066  -52.4228 H         1 UNK         0.0794 
    126 H126       38.6512  -49.1361  -52.3348 H         1 UNK         0.0794 
    127 H127       37.0425  -46.3881  -53.9893 H         1 UNK         0.3016 
@<TRIPOS>BOND
     1    1    2 1    
     2    1   67 1    
     3    1   68 1    
     4    1   69 1    
     5    2    3 2    
     6    2    4 am   BACKBONE|DICT|INTERRES
     7    4    5 1    
     8    4   70 1    
     9    5    6 1    
    10    5   65 1    
    11    5   71 1    
    12    6    7 1    
    13    6   72 1    
    14    6   73 1    
    15    7    8 1    
    16    8    9 1    
    17    8   74 1    
    18    8   75 1    
    19    9   10 ar   
    20    9   14 ar   
    21   10   11 ar   
    22   10   76 1    
    23   11   12 ar   
    24   11   48 1    
    25   12   13 ar   
    26   12   77 1    
    27   13   14 ar   
    28   13   15 1    
    29   14   78 1    
    30   15   16 1    
    31   15   79 1    
    32   15   80 1    
    33   16   17 1    
    34   17   18 1    
    35   17   81 1    
    36   17   82 1    
    37   18   19 1    
    38   18   22 1    
    39   18   83 1    
    40   19   20 am   BACKBONE|DICT|INTERRES
    41   19   21 2    
    42   20   84 1    
    43   20   85 1    
    44   22   23 am   BACKBONE|DICT|INTERRES
    45   22   86 1    
    46   23   24 2    
    47   23   25 1    
    48   25   26 1    
    49   25   27 1    
    50   25   87 1    
    51   26   88 1    
    52   26   89 1    
    53   26   90 1    
    54   27   28 am   BACKBONE|DICT|INTERRES
    55   27   91 1    
    56   28   29 2    
    57   28   30 1    
    58   30   31 1    
    59   30   32 1    
    60   30   92 1    
    61   31   93 1    
    62   31   94 1    
    63   31   95 1    
    64   32   33 am   BACKBONE|DICT|INTERRES
    65   32   96 1    
    66   33   34 2    
    67   33   35 1    
    68   35   36 1    
    69   35   37 1    
    70   35   97 1    
    71   36   98 1    
    72   36   99 1    
    73   36  100 1    
    74   37   38 am   BACKBONE|DICT|INTERRES
    75   37  101 1    
    76   38   39 2    
    77   38   40 1    
    78   40   41 1    
    79   40   42 1    
    80   40  102 1    
    81   41  103 1    
    82   41  104 1    
    83   41  105 1    
    84   42   43 am   BACKBONE|DICT|INTERRES
    85   42  106 1    
    86   43   44 2    
    87   43   45 1    
    88   45   46 1    
    89   45   49 1    
    90   45  107 1    
    91   46   47 1    
    92   46  108 1    
    93   46  109 1    
    94   47   48 1    
    95   48  110 1    
    96   48  111 1    
    97   49   50 am   BACKBONE|DICT|INTERRES
    98   49  112 1    
    99   50   51 2    
   100   50   52 1    
   101   52   53 1    
   102   52   54 1    
   103   52  113 1    
   104   53  114 1    
   105   53  115 1    
   106   53  116 1    
   107   54   55 am   BACKBONE|DICT|INTERRES
   108   54  117 1    
   109   55   56 2    
   110   55   57 1    
   111   57   58 1    
   112   57   59 1    
   113   57  118 1    
   114   58  119 1    
   115   58  120 1    
   116   58  121 1    
   117   59   60 am   BACKBONE|DICT|INTERRES
   118   59  122 1    
   119   60   61 2    
   120   60   62 1    
   121   62   63 1    
   122   62   64 1    
   123   62  123 1    
   124   63  124 1    
   125   63  125 1    
   126   63  126 1    
   127   64   65 am   BACKBONE|DICT|INTERRES
   128   64  127 1    
   129   65   66 2    
@<TRIPOS>SUBSTRUCTURE
     1 UNK         1 GROUP             0       ****    0 ROOT    
