@<TRIPOS>MOLECULE
3R134
127   129    1
SMALL
USER_CHARGES


@<TRIPOS>ATOM
      1 CA         32.2838  -46.8357  -46.9804 C.3       0 UNK        -0.1968 
      2 C          33.1968  -46.5076  -48.1529 C.2       0 UNK         0.4852 
      3 O          34.3456  -46.1145  -47.9414 O.2       0 UNK        -0.5359 
      4 N          32.6920  -46.6575  -49.3842 N.am      1 UNK        -0.4300 
      5 CA         33.4333  -46.4335  -50.6310 C.3       1 UNK         0.0863 
      6 C6         32.4869  -46.2564  -51.8478 C.3       11 UNK        -0.0953 
      7 S7         31.2754  -44.9173  -51.5794 S.3       11 UNK        -0.2369 
      8 C8         32.0712  -43.4915  -52.3812 C.3       11 UNK         0.0226 
      9 C9         31.6152  -43.3104  -53.8226 C.ar      11 UNK        -0.0699 
     10 C10        32.3995  -43.7824  -54.8802 C.ar      11 UNK        -0.0804 
     11 C11        32.0028  -43.5671  -56.2044 C.ar      11 UNK        -0.0871 
     12 C12        30.8325  -42.8544  -56.4643 C.ar      11 UNK        -0.1008 
     13 C13        30.0174  -42.4133  -55.4207 C.ar      11 UNK        -0.0735 
     14 C14        30.4173  -42.6397  -54.0993 C.ar      11 UNK        -0.0945 
     15 C15        28.7137  -41.6888  -55.7301 C.3       11 UNK         0.0169 
     16 S16        27.3683  -42.8471  -56.1509 S.3       11 UNK        -0.2669 
     17 C17        27.8865  -43.4471  -57.7995 C.3       11 UNK        -0.0850 
     18 CA         26.7053  -43.8901  -58.7006 C.3       10 UNK         0.0855 
     19 C          27.1823  -44.2474  -60.1408 C.2       10 UNK         0.5543 
     20 N          26.8317  -45.3982  -60.7049 N.am      10 UNK        -0.7343 
     21 O          27.8748  -43.4516  -60.7706 O.2       10 UNK        -0.5027 
     22 N          25.8983  -44.9439  -58.0687 N.am      10 UNK        -0.4495 
     23 C          24.5812  -45.0945  -58.2510 C.2       10 UNK         0.4903 
     24 O          23.8903  -44.3245  -58.9209 O.2       10 UNK        -0.4860 
     25 CA         23.9319  -46.3139  -57.5719 C.3       9 UNK         0.0227 
     26 CB         22.5152  -46.6170  -58.1053 C.3       9 UNK        -0.1964 
     27 N          24.7683  -47.5191  -57.6147 N.am      9 UNK        -0.4231 
     28 C          25.2143  -48.1739  -58.6994 C.2       9 UNK         0.5014 
     29 O          25.0249  -47.7766  -59.8503 O.2       9 UNK        -0.5270 
     30 CA         26.0108  -49.4819  -58.4832 C.3       8 UNK         0.0284 
     31 CB         27.2315  -49.5604  -59.4183 C.3       8 UNK        -0.1977 
     32 N          26.4629  -49.6751  -57.1032 N.am      8 UNK        -0.4342 
     33 C          25.7086  -50.0901  -56.0764 C.2       8 UNK         0.5039 
     34 O          24.5471  -50.4797  -56.1939 O.2       8 UNK        -0.5547 
     35 CA         26.3267  -49.9651  -54.6716 C.3       7 UNK         0.0281 
     36 CB         27.0414  -51.2616  -54.2626 C.3       7 UNK        -0.1963 
     37 N          27.2468  -48.8252  -54.5635 N.am      7 UNK        -0.4444 
     38 C          26.8680  -47.5402  -54.6423 C.2       7 UNK         0.5104 
     39 O          25.6953  -47.1844  -54.7541 O.2       7 UNK        -0.5100 
     40 CA         27.9760  -46.4749  -54.6431 C.3       6 UNK         0.0396 
     41 CB         28.2467  -45.9658  -53.2224 C.3       6 UNK        -0.1801 
     42 N          29.2229  -46.9448  -55.2537 N.am      6 UNK        -0.4747 
     43 C          29.3886  -47.1088  -56.5751 C.2       6 UNK         0.5012 
     44 O          28.5113  -46.8623  -57.4041 O.2       6 UNK        -0.5003 
     45 CA         30.7269  -47.7282  -57.0320 C.3       5 UNK         0.0782 
     46 C46        31.9165  -46.7418  -56.9565 C.3       11 UNK        -0.0868 
     47 S47        31.9027  -45.4454  -58.2335 S.3       11 UNK        -0.2515 
     48 C48        32.8110  -44.1200  -57.3687 C.3       11 UNK         0.0199 
     49 N          31.0544  -48.9210  -56.2553 N.am      5 UNK        -0.4607 
     50 C          30.3815  -50.0718  -56.2033 C.2       4 UNK         0.5031 
     51 O          29.3303  -50.2589  -56.8141 O.2       4 UNK        -0.5119 
     52 CA         30.9717  -51.1922  -55.3109 C.3       4 UNK         0.0263 
     53 CB         30.6263  -52.5921  -55.8542 C.3       4 UNK        -0.1967 
     54 N          32.4287  -51.1250  -55.1029 N.am      4 UNK        -0.4237 
     55 C          33.1022  -50.1925  -54.4152 C.2       3 UNK         0.4908 
     56 O          32.5641  -49.2239  -53.8706 O.2       3 UNK        -0.5102 
     57 CA         34.6298  -50.3228  -54.3962 C.3       3 UNK         0.0241 
     58 CB         35.2296  -50.1389  -55.8041 C.3       3 UNK        -0.1971 
     59 N          35.1626  -49.3002  -53.5033 N.am      3 UNK        -0.4139 
     60 C          36.3050  -49.3651  -52.8142 C.2       2 UNK         0.5016 
     61 O          37.0924  -50.3099  -52.8867 O.2       2 UNK        -0.5319 
     62 CA         36.6425  -48.1755  -51.8924 C.3       2 UNK         0.0286 
     63 CB         37.8082  -47.3602  -52.4774 C.3       2 UNK        -0.1963 
     64 N          35.5217  -47.2645  -51.6166 N.am      2 UNK        -0.4790 
     65 C          34.4504  -47.5702  -50.8712 C.2       1 UNK         0.5024 
     66 O          34.2515  -48.6920  -50.3976 O.2       1 UNK        -0.4888 
     67 H67        32.7155  -47.6377  -46.3822 H         1 UNK         0.0892 
     68 H68        32.1632  -45.9607  -46.3422 H         1 UNK         0.0892 
     69 H69        31.2947  -47.1533  -47.3099 H         1 UNK         0.0892 
     70 H70        31.7469  -46.9936  -49.4979 H         1 UNK         0.3107 
     71 H71        34.0004  -45.5074  -50.5117 H         1 UNK         0.0773 
     72 H72        33.0507  -46.0522  -52.7596 H         1 UNK         0.0680 
     73 H73        31.9308  -47.1768  -52.0364 H         1 UNK         0.0680 
     74 H74        33.1565  -43.5882  -52.3254 H         1 UNK         0.0650 
     75 H75        31.8220  -42.5947  -51.8121 H         1 UNK         0.0650 
     76 H76        33.3157  -44.3176  -54.6721 H         1 UNK         0.1397 
     77 H77        30.5450  -42.6757  -57.4899 H         1 UNK         0.1363 
     78 H78        29.8001  -42.2889  -53.2835 H         1 UNK         0.1355 
     79 H79        28.8612  -40.9806  -56.5469 H         1 UNK         0.0707 
     80 H80        28.4036  -41.0954  -54.8687 H         1 UNK         0.0707 
     81 H81        28.5979  -44.2634  -57.6690 H         1 UNK         0.1034 
     82 H82        28.4303  -42.6416  -58.2952 H         1 UNK         0.1034 
     83 H83        26.0706  -43.0106  -58.8247 H         1 UNK         0.0482 
     84 H84        26.2353  -46.0588  -60.2224 H         1 UNK         0.3460 
     85 H85        27.1482  -45.6017  -61.6392 H         1 UNK         0.3460 
     86 H86        26.4122  -45.6392  -57.5444 H         1 UNK         0.2989 
     87 H87        23.8343  -46.0521  -56.5175 H         1 UNK         0.0559 
     88 H88        22.5237  -46.8384  -59.1731 H         1 UNK         0.0848 
     89 H89        21.8494  -45.7661  -57.9555 H         1 UNK         0.0848 
     90 H90        22.0706  -47.4681  -57.5897 H         1 UNK         0.0848 
     91 H91        25.0201  -47.8870  -56.7052 H         1 UNK         0.3144 
     92 H92        25.3396  -50.3037  -58.7405 H         1 UNK         0.0727 
     93 H93        27.7806  -50.4916  -59.2767 H         1 UNK         0.0790 
     94 H94        27.9236  -48.7356  -59.2466 H         1 UNK         0.0790 
     95 H95        26.9304  -49.5208  -60.4658 H         1 UNK         0.0790 
     96 H96        27.4372  -49.4557  -56.9213 H         1 UNK         0.3215 
     97 H97        25.5076  -49.7970  -53.9686 H         1 UNK         0.0863 
     98 H98        27.4515  -51.1918  -53.2550 H         1 UNK         0.0808 
     99 H99        27.8547  -51.5058  -54.9430 H         1 UNK         0.0808 
    100 H100       26.3489  -52.1044  -54.2724 H         1 UNK         0.0808 
    101 H101       28.2314  -49.0300  -54.4876 H         1 UNK         0.3118 
    102 H102       27.6070  -45.6318  -55.2293 H         1 UNK         0.0546 
    103 H103       27.3215  -45.6616  -52.7310 H         1 UNK         0.0828 
    104 H104       28.8951  -45.0909  -53.2464 H         1 UNK         0.0828 
    105 H105       28.7180  -46.7242  -52.5965 H         1 UNK         0.0828 
    106 H106       29.9860  -47.1728  -54.6325 H         1 UNK         0.3005 
    107 H107       30.5996  -48.0447  -58.0698 H         1 UNK         0.1257 
    108 H108       32.8548  -47.2835  -57.0898 H         1 UNK         0.0775 
    109 H109       31.9757  -46.3001  -55.9615 H         1 UNK         0.0775 
    110 H110       33.7772  -44.4998  -57.0326 H         1 UNK         0.0840 
    111 H111       33.0248  -43.3156  -58.0740 H         1 UNK         0.0840 
    112 H112       31.8466  -48.8415  -55.6279 H         1 UNK         0.2987 
    113 H113       30.4958  -51.0857  -54.3341 H         1 UNK         0.0785 
    114 H114       29.5508  -52.7282  -55.9683 H         1 UNK         0.0798 
    115 H115       30.9744  -53.3762  -55.1815 H         1 UNK         0.0798 
    116 H116       31.0770  -52.7636  -56.8324 H         1 UNK         0.0798 
    117 H117       32.9635  -51.8581  -55.5467 H         1 UNK         0.3079 
    118 H118       34.8813  -51.3125  -54.0090 H         1 UNK         0.0794 
    119 H119       34.9676  -49.1691  -56.2294 H         1 UNK         0.0786 
    120 H120       34.8756  -50.9058  -56.4937 H         1 UNK         0.0786 
    121 H121       36.3174  -50.2086  -55.7826 H         1 UNK         0.0786 
    122 H122       34.5278  -48.5315  -53.3292 H         1 UNK         0.3032 
    123 H123       36.9686  -48.6014  -50.9405 H         1 UNK         0.1094 
    124 H124       37.5392  -46.8956  -53.4268 H         1 UNK         0.0794 
    125 H125       38.1260  -46.5726  -51.7938 H         1 UNK         0.0794 
    126 H126       38.6769  -47.9945  -52.6606 H         1 UNK         0.0794 
    127 H127       35.6107  -46.3252  -51.9785 H         1 UNK         0.3016 
@<TRIPOS>BOND
     1    1    2 1    
     2    1   67 1    
     3    1   68 1    
     4    1   69 1    
     5    2    3 2    
     6    2    4 am   BACKBONE|DICT|INTERRES
     7    4    5 1    
     8    4   70 1    
     9    5    6 1    
    10    5   65 1    
    11    5   71 1    
    12    6    7 1    
    13    6   72 1    
    14    6   73 1    
    15    7    8 1    
    16    8    9 1    
    17    8   74 1    
    18    8   75 1    
    19    9   10 ar   
    20    9   14 ar   
    21   10   11 ar   
    22   10   76 1    
    23   11   12 ar   
    24   11   48 1    
    25   12   13 ar   
    26   12   77 1    
    27   13   14 ar   
    28   13   15 1    
    29   14   78 1    
    30   15   16 1    
    31   15   79 1    
    32   15   80 1    
    33   16   17 1    
    34   17   18 1    
    35   17   81 1    
    36   17   82 1    
    37   18   19 1    
    38   18   22 1    
    39   18   83 1    
    40   19   20 am   BACKBONE|DICT|INTERRES
    41   19   21 2    
    42   20   84 1    
    43   20   85 1    
    44   22   23 am   BACKBONE|DICT|INTERRES
    45   22   86 1    
    46   23   24 2    
    47   23   25 1    
    48   25   26 1    
    49   25   27 1    
    50   25   87 1    
    51   26   88 1    
    52   26   89 1    
    53   26   90 1    
    54   27   28 am   BACKBONE|DICT|INTERRES
    55   27   91 1    
    56   28   29 2    
    57   28   30 1    
    58   30   31 1    
    59   30   32 1    
    60   30   92 1    
    61   31   93 1    
    62   31   94 1    
    63   31   95 1    
    64   32   33 am   BACKBONE|DICT|INTERRES
    65   32   96 1    
    66   33   34 2    
    67   33   35 1    
    68   35   36 1    
    69   35   37 1    
    70   35   97 1    
    71   36   98 1    
    72   36   99 1    
    73   36  100 1    
    74   37   38 am   BACKBONE|DICT|INTERRES
    75   37  101 1    
    76   38   39 2    
    77   38   40 1    
    78   40   41 1    
    79   40   42 1    
    80   40  102 1    
    81   41  103 1    
    82   41  104 1    
    83   41  105 1    
    84   42   43 am   BACKBONE|DICT|INTERRES
    85   42  106 1    
    86   43   44 2    
    87   43   45 1    
    88   45   46 1    
    89   45   49 1    
    90   45  107 1    
    91   46   47 1    
    92   46  108 1    
    93   46  109 1    
    94   47   48 1    
    95   48  110 1    
    96   48  111 1    
    97   49   50 am   BACKBONE|DICT|INTERRES
    98   49  112 1    
    99   50   51 2    
   100   50   52 1    
   101   52   53 1    
   102   52   54 1    
   103   52  113 1    
   104   53  114 1    
   105   53  115 1    
   106   53  116 1    
   107   54   55 am   BACKBONE|DICT|INTERRES
   108   54  117 1    
   109   55   56 2    
   110   55   57 1    
   111   57   58 1    
   112   57   59 1    
   113   57  118 1    
   114   58  119 1    
   115   58  120 1    
   116   58  121 1    
   117   59   60 am   BACKBONE|DICT|INTERRES
   118   59  122 1    
   119   60   61 2    
   120   60   62 1    
   121   62   63 1    
   122   62   64 1    
   123   62  123 1    
   124   63  124 1    
   125   63  125 1    
   126   63  126 1    
   127   64   65 am   BACKBONE|DICT|INTERRES
   128   64  127 1    
   129   65   66 2    
@<TRIPOS>SUBSTRUCTURE
     1 UNK         1 GROUP             0       ****    0 ROOT    
