@<TRIPOS>MOLECULE
3R134
127   129    1
SMALL
USER_CHARGES


@<TRIPOS>ATOM
      1 CA         32.0042  -44.2955  -47.4756 C.3       0 UNK        -0.1968 
      2 C          33.0422  -44.9392  -48.3835 C.2       0 UNK         0.4852 
      3 O          34.0305  -45.4860  -47.8902 O.2       0 UNK        -0.5359 
      4 N          32.8289  -44.8701  -49.7035 N.am      1 UNK        -0.4300 
      5 CA         33.6907  -45.4772  -50.7239 C.3       1 UNK         0.0863 
      6 C6         33.4777  -44.8421  -52.1204 C.3       11 UNK        -0.0953 
      7 S7         33.7902  -43.0468  -52.1251 S.3       11 UNK        -0.2369 
      8 C8         32.1681  -42.4107  -52.6751 C.3       11 UNK         0.0226 
      9 C9         31.7924  -42.7219  -54.1270 C.ar      11 UNK        -0.0699 
     10 C10        32.7444  -43.0622  -55.0972 C.ar      11 UNK        -0.0804 
     11 C11        32.3696  -43.2822  -56.4255 C.ar      11 UNK        -0.0871 
     12 C12        31.0240  -43.1597  -56.7896 C.ar      11 UNK        -0.1008 
     13 C13        30.0611  -42.8135  -55.8360 C.ar      11 UNK        -0.0735 
     14 C14        30.4526  -42.6041  -54.5100 C.ar      11 UNK        -0.0945 
     15 C15        28.6079  -42.5936  -56.2373 C.3       11 UNK         0.0169 
     16 S16        27.5370  -43.9870  -55.7647 S.3       11 UNK        -0.2669 
     17 C17        27.7170  -45.0871  -57.2085 C.3       11 UNK        -0.0850 
     18 CA         26.5313  -44.9863  -58.2037 C.3       10 UNK         0.0855 
     19 C          26.8112  -45.8094  -59.4964 C.2       10 UNK         0.5543 
     20 N          25.9939  -46.7900  -59.8657 N.am      10 UNK        -0.7343 
     21 O          27.7866  -45.5387  -60.1918 O.2       10 UNK        -0.5027 
     22 N          25.2445  -45.3036  -57.5628 N.am      10 UNK        -0.4495 
     23 C          24.0561  -44.8556  -57.9916 C.2       10 UNK         0.4903 
     24 O          23.9302  -44.0442  -58.9107 O.2       10 UNK        -0.4860 
     25 CA         22.7954  -45.4005  -57.2828 C.3       9 UNK         0.0227 
     26 CB         21.5378  -45.3306  -58.1758 C.3       9 UNK        -0.1964 
     27 N          22.9583  -46.7522  -56.7302 N.am      9 UNK        -0.4231 
     28 C          23.2929  -47.8648  -57.3997 C.2       9 UNK         0.5014 
     29 O          23.4878  -47.9167  -58.6165 O.2       9 UNK        -0.5270 
     30 CA         23.5124  -49.1258  -56.5448 C.3       8 UNK         0.0284 
     31 CB         22.5628  -50.2555  -56.9772 C.3       8 UNK        -0.1977 
     32 N          24.8993  -49.5969  -56.6199 N.am      8 UNK        -0.4342 
     33 C          25.9799  -48.8608  -56.3251 C.2       8 UNK         0.5039 
     34 O          25.9187  -47.6971  -55.9156 O.2       8 UNK        -0.5547 
     35 CA         27.3464  -49.5341  -56.5539 C.3       7 UNK         0.0281 
     36 CB         27.6016  -49.7729  -58.0522 C.3       7 UNK        -0.1963 
     37 N          28.4340  -48.7091  -56.0350 N.am      7 UNK        -0.4444 
     38 C          28.7606  -48.5559  -54.7492 C.2       7 UNK         0.5104 
     39 O          28.2891  -49.2397  -53.8382 O.2       7 UNK        -0.5100 
     40 CA         29.7890  -47.4459  -54.4446 C.3       6 UNK         0.0396 
     41 CB         30.0948  -47.3262  -52.9414 C.3       6 UNK        -0.1801 
     42 N          31.0450  -47.6078  -55.1875 N.am      6 UNK        -0.4747 
     43 C          31.2142  -47.3428  -56.4934 C.2       6 UNK         0.5012 
     44 O          30.3022  -46.9538  -57.2229 O.2       6 UNK        -0.5003 
     45 CA         32.5961  -47.6041  -57.1157 C.3       5 UNK         0.0782 
     46 C46        33.5395  -46.3823  -56.9837 C.3       11 UNK        -0.0868 
     47 S47        33.2179  -45.1719  -58.3127 S.3       11 UNK        -0.2515 
     48 C48        33.4389  -43.5734  -57.4722 C.3       11 UNK         0.0199 
     49 N          33.1814  -48.8361  -56.5795 N.am      5 UNK        -0.4607 
     50 C          33.4743  -49.9149  -57.3221 C.2       4 UNK         0.5031 
     51 O          33.4073  -49.9409  -58.5515 O.2       4 UNK        -0.5119 
     52 CA         33.8985  -51.1997  -56.5838 C.3       4 UNK         0.0263 
     53 CB         35.4311  -51.2967  -56.5146 C.3       4 UNK        -0.1967 
     54 N          33.3502  -51.3043  -55.2312 N.am      4 UNK        -0.4237 
     55 C          32.0469  -51.3599  -54.9199 C.2       3 UNK         0.4908 
     56 O          31.1496  -51.4803  -55.7538 O.2       3 UNK        -0.5102 
     57 CA         31.6735  -51.2251  -53.4305 C.3       3 UNK         0.0241 
     58 CB         31.2077  -52.5789  -52.8701 C.3       3 UNK        -0.1971 
     59 N          32.7320  -50.6859  -52.5628 N.am      3 UNK        -0.4139 
     60 C          33.3282  -49.4920  -52.6925 C.2       2 UNK         0.5016 
     61 O          33.1139  -48.7114  -53.6256 O.2       2 UNK        -0.5319 
     62 CA         34.3948  -49.1466  -51.6406 C.3       2 UNK         0.0286 
     63 CB         35.7770  -49.6257  -52.1138 C.3       2 UNK        -0.1963 
     64 N          34.4543  -47.7073  -51.3795 N.am      2 UNK        -0.4790 
     65 C          33.4781  -47.0034  -50.7914 C.2       1 UNK         0.5024 
     66 O          32.4455  -47.5110  -50.3442 O.2       1 UNK        -0.4888 
     67 H67        31.5690  -45.0442  -46.8142 H         1 UNK         0.0892 
     68 H68        32.4692  -43.5255  -46.8606 H         1 UNK         0.0892 
     69 H69        31.1961  -43.8335  -48.0426 H         1 UNK         0.0892 
     70 H70        31.9896  -44.4294  -50.0487 H         1 UNK         0.3107 
     71 H71        34.7288  -45.3048  -50.4304 H         1 UNK         0.0773 
     72 H72        32.4678  -45.0351  -52.4821 H         1 UNK         0.0680 
     73 H73        34.1486  -45.2896  -52.8561 H         1 UNK         0.0680 
     74 H74        32.1700  -41.3273  -52.5501 H         1 UNK         0.0650 
     75 H75        31.3995  -42.7965  -52.0037 H         1 UNK         0.0650 
     76 H76        33.7895  -43.1308  -54.8322 H         1 UNK         0.1397 
     77 H77        30.7339  -43.3100  -57.8206 H         1 UNK         0.1363 
     78 H78        29.7088  -42.3226  -53.7768 H         1 UNK         0.1355 
     79 H79        28.5225  -42.4064  -57.3089 H         1 UNK         0.0707 
     80 H80        28.2367  -41.6924  -55.7470 H         1 UNK         0.0707 
     81 H81        28.6634  -44.8670  -57.7060 H         1 UNK         0.1034 
     82 H82        27.8071  -46.1082  -56.8418 H         1 UNK         0.1034 
     83 H83        26.4875  -43.9456  -58.5304 H         1 UNK         0.0482 
     84 H84        25.1680  -47.0212  -59.3246 H         1 UNK         0.3460 
     85 H85        26.1910  -47.2965  -60.7135 H         1 UNK         0.3460 
     86 H86        25.2841  -46.0041  -56.8281 H         1 UNK         0.2989 
     87 H87        22.6281  -44.7437  -56.4281 H         1 UNK         0.0559 
     88 H88        21.6572  -45.9164  -59.0879 H         1 UNK         0.0848 
     89 H89        21.3243  -44.3038  -58.4754 H         1 UNK         0.0848 
     90 H90        20.6568  -45.7013  -57.6521 H         1 UNK         0.0848 
     91 H91        22.8741  -46.8185  -55.7248 H         1 UNK         0.3144 
     92 H92        23.3035  -48.8887  -55.4995 H         1 UNK         0.0727 
     93 H93        22.6655  -51.1305  -56.3349 H         1 UNK         0.0790 
     94 H94        21.5223  -49.9329  -56.9192 H         1 UNK         0.0790 
     95 H95        22.7490  -50.5686  -58.0055 H         1 UNK         0.0790 
     96 H96        25.0347  -50.5317  -56.9764 H         1 UNK         0.3215 
     97 H97        27.3518  -50.4928  -56.0308 H         1 UNK         0.0863 
     98 H98        26.8392  -50.4165  -58.4922 H         1 UNK         0.0808 
     99 H99        28.5638  -50.2596  -58.2147 H         1 UNK         0.0808 
    100 H100       27.6030  -48.8380  -58.6137 H         1 UNK         0.0808 
    101 H101       28.8982  -48.0909  -56.6945 H         1 UNK         0.3118 
    102 H102       29.3340  -46.5023  -54.7536 H         1 UNK         0.0546 
    103 H103       30.7685  -46.4967  -52.7395 H         1 UNK         0.0828 
    104 H104       30.5505  -48.2326  -52.5437 H         1 UNK         0.0828 
    105 H105       29.1836  -47.1435  -52.3706 H         1 UNK         0.0828 
    106 H106       31.8335  -47.9556  -54.6449 H         1 UNK         0.3005 
    107 H107       32.3997  -47.7549  -58.1801 H         1 UNK         0.1257 
    108 H108       34.5794  -46.6967  -57.0854 H         1 UNK         0.0775 
    109 H109       33.4614  -45.9159  -55.9995 H         1 UNK         0.0775 
    110 H110       34.4380  -43.5434  -57.0344 H         1 UNK         0.0840 
    111 H111       33.4149  -42.7816  -58.2222 H         1 UNK         0.0840 
    112 H112       33.2608  -48.8964  -55.5689 H         1 UNK         0.2987 
    113 H113       33.5235  -52.0481  -57.1601 H         1 UNK         0.0785 
    114 H114       35.8701  -51.2479  -57.5122 H         1 UNK         0.0798 
    115 H115       35.7506  -52.2387  -56.0685 H         1 UNK         0.0798 
    116 H116       35.8618  -50.4829  -55.9293 H         1 UNK         0.0798 
    117 H117       34.0087  -51.2199  -54.4717 H         1 UNK         0.3079 
    118 H118       30.8321  -50.5316  -53.3822 H         1 UNK         0.0794 
    119 H119       30.8330  -52.4799  -51.8510 H         1 UNK         0.0786 
    120 H120       32.0147  -53.3126  -52.8638 H         1 UNK         0.0786 
    121 H121       30.3957  -52.9924  -53.4703 H         1 UNK         0.0786 
    122 H122       32.9953  -51.2683  -51.7803 H         1 UNK         0.3032 
    123 H123       34.1444  -49.6506  -50.7041 H         1 UNK         0.1094 
    124 H124       36.0708  -49.1500  -53.0508 H         1 UNK         0.0794 
    125 H125       36.5470  -49.4105  -51.3726 H         1 UNK         0.0794 
    126 H126       35.7848  -50.7039  -52.2794 H         1 UNK         0.0794 
    127 H127       35.2535  -47.2157  -51.7528 H         1 UNK         0.3016 
@<TRIPOS>BOND
     1    1    2 1    
     2    1   67 1    
     3    1   68 1    
     4    1   69 1    
     5    2    3 2    
     6    2    4 am   BACKBONE|DICT|INTERRES
     7    4    5 1    
     8    4   70 1    
     9    5    6 1    
    10    5   65 1    
    11    5   71 1    
    12    6    7 1    
    13    6   72 1    
    14    6   73 1    
    15    7    8 1    
    16    8    9 1    
    17    8   74 1    
    18    8   75 1    
    19    9   10 ar   
    20    9   14 ar   
    21   10   11 ar   
    22   10   76 1    
    23   11   12 ar   
    24   11   48 1    
    25   12   13 ar   
    26   12   77 1    
    27   13   14 ar   
    28   13   15 1    
    29   14   78 1    
    30   15   16 1    
    31   15   79 1    
    32   15   80 1    
    33   16   17 1    
    34   17   18 1    
    35   17   81 1    
    36   17   82 1    
    37   18   19 1    
    38   18   22 1    
    39   18   83 1    
    40   19   20 am   BACKBONE|DICT|INTERRES
    41   19   21 2    
    42   20   84 1    
    43   20   85 1    
    44   22   23 am   BACKBONE|DICT|INTERRES
    45   22   86 1    
    46   23   24 2    
    47   23   25 1    
    48   25   26 1    
    49   25   27 1    
    50   25   87 1    
    51   26   88 1    
    52   26   89 1    
    53   26   90 1    
    54   27   28 am   BACKBONE|DICT|INTERRES
    55   27   91 1    
    56   28   29 2    
    57   28   30 1    
    58   30   31 1    
    59   30   32 1    
    60   30   92 1    
    61   31   93 1    
    62   31   94 1    
    63   31   95 1    
    64   32   33 am   BACKBONE|DICT|INTERRES
    65   32   96 1    
    66   33   34 2    
    67   33   35 1    
    68   35   36 1    
    69   35   37 1    
    70   35   97 1    
    71   36   98 1    
    72   36   99 1    
    73   36  100 1    
    74   37   38 am   BACKBONE|DICT|INTERRES
    75   37  101 1    
    76   38   39 2    
    77   38   40 1    
    78   40   41 1    
    79   40   42 1    
    80   40  102 1    
    81   41  103 1    
    82   41  104 1    
    83   41  105 1    
    84   42   43 am   BACKBONE|DICT|INTERRES
    85   42  106 1    
    86   43   44 2    
    87   43   45 1    
    88   45   46 1    
    89   45   49 1    
    90   45  107 1    
    91   46   47 1    
    92   46  108 1    
    93   46  109 1    
    94   47   48 1    
    95   48  110 1    
    96   48  111 1    
    97   49   50 am   BACKBONE|DICT|INTERRES
    98   49  112 1    
    99   50   51 2    
   100   50   52 1    
   101   52   53 1    
   102   52   54 1    
   103   52  113 1    
   104   53  114 1    
   105   53  115 1    
   106   53  116 1    
   107   54   55 am   BACKBONE|DICT|INTERRES
   108   54  117 1    
   109   55   56 2    
   110   55   57 1    
   111   57   58 1    
   112   57   59 1    
   113   57  118 1    
   114   58  119 1    
   115   58  120 1    
   116   58  121 1    
   117   59   60 am   BACKBONE|DICT|INTERRES
   118   59  122 1    
   119   60   61 2    
   120   60   62 1    
   121   62   63 1    
   122   62   64 1    
   123   62  123 1    
   124   63  124 1    
   125   63  125 1    
   126   63  126 1    
   127   64   65 am   BACKBONE|DICT|INTERRES
   128   64  127 1    
   129   65   66 2    
@<TRIPOS>SUBSTRUCTURE
     1 UNK         1 GROUP             0       ****    0 ROOT    
