@<TRIPOS>MOLECULE
3R134
127   129    1
SMALL
USER_CHARGES


@<TRIPOS>ATOM
      1 CA         33.7678  -48.4149  -49.5949 C.3       0 UNK        -0.1968 
      2 C          34.5024  -47.9124  -50.8287 C.2       0 UNK         0.4852 
      3 O          35.6114  -48.3674  -51.1138 O.2       0 UNK        -0.5359 
      4 N          33.8835  -46.9922  -51.5768 N.am      1 UNK        -0.4300 
      5 CA         34.3523  -46.4825  -52.8640 C.3       1 UNK         0.0863 
      6 C6         33.7991  -45.0541  -53.1078 C.3       11 UNK        -0.0953 
      7 S7         34.4910  -44.2496  -54.5907 S.3       11 UNK        -0.2369 
      8 C8         33.8235  -42.5658  -54.4184 C.3       11 UNK         0.0226 
      9 C9         32.3402  -42.4829  -54.7582 C.ar      11 UNK        -0.0699 
     10 C10        31.3772  -42.5858  -53.7498 C.ar      11 UNK        -0.0804 
     11 C11        30.0184  -42.4472  -54.0480 C.ar      11 UNK        -0.0871 
     12 C12        29.6265  -42.1832  -55.3651 C.ar      11 UNK        -0.1008 
     13 C13        30.5770  -42.0845  -56.3860 C.ar      11 UNK        -0.0735 
     14 C14        31.9320  -42.2474  -56.0754 C.ar      11 UNK        -0.0945 
     15 C15        30.1562  -41.7318  -57.8096 C.3       11 UNK         0.0169 
     16 S16        29.2875  -43.0896  -58.6639 S.3       11 UNK        -0.2669 
     17 C17        27.5351  -42.7683  -58.2532 C.3       11 UNK        -0.0850 
     18 CA         26.9111  -43.8912  -57.3755 C.3       10 UNK         0.0855 
     19 C          25.5656  -43.4734  -56.7067 C.2       10 UNK         0.5543 
     20 N          24.5952  -44.3658  -56.5419 N.am      10 UNK        -0.7343 
     21 O          25.4103  -42.3281  -56.2908 O.2       10 UNK        -0.5027 
     22 N          26.8831  -45.2111  -58.0268 N.am      10 UNK        -0.4495 
     23 C          26.1872  -45.5496  -59.1218 C.2       10 UNK         0.4903 
     24 O          25.5496  -44.7515  -59.8091 O.2       10 UNK        -0.4860 
     25 CA         26.1603  -47.0424  -59.5017 C.3       9 UNK         0.0227 
     26 CB         27.1657  -47.3257  -60.6284 C.3       9 UNK        -0.1964 
     27 N          26.4040  -47.9364  -58.3600 N.am      9 UNK        -0.4231 
     28 C          25.5388  -48.0967  -57.3435 C.2       9 UNK         0.5014 
     29 O          24.4393  -47.5403  -57.3116 O.2       9 UNK        -0.5270 
     30 CA         25.9598  -48.9450  -56.1269 C.3       8 UNK         0.0284 
     31 CB         24.8655  -49.9424  -55.6905 C.3       8 UNK        -0.1977 
     32 N          27.2785  -49.5762  -56.2464 N.am      8 UNK        -0.4342 
     33 C          27.6413  -50.6715  -56.9296 C.2       8 UNK         0.5039 
     34 O          26.8632  -51.3855  -57.5636 O.2       8 UNK        -0.5547 
     35 CA         29.1531  -50.9973  -56.9055 C.3       7 UNK         0.0281 
     36 CB         29.5801  -51.9543  -58.0381 C.3       7 UNK        -0.1963 
     37 N          30.0033  -49.7956  -56.8953 N.am      7 UNK        -0.4444 
     38 C          29.9749  -48.8026  -57.7978 C.2       7 UNK         0.5104 
     39 O          29.2495  -48.8105  -58.7919 O.2       7 UNK        -0.5100 
     40 CA         30.8354  -47.5661  -57.4884 C.3       6 UNK         0.0396 
     41 CB         30.6245  -46.4218  -58.4991 C.3       6 UNK        -0.1801 
     42 N          30.6466  -47.0789  -56.1166 N.am      6 UNK        -0.4747 
     43 C          29.5057  -46.6714  -55.5443 C.2       6 UNK         0.5012 
     44 O          28.4048  -46.7282  -56.0948 O.2       6 UNK        -0.5003 
     45 CA         29.5993  -46.2017  -54.0855 C.3       5 UNK         0.0782 
     46 C46        28.4517  -45.2277  -53.7035 C.3       11 UNK        -0.0868 
     47 S47        28.8561  -44.2269  -52.2351 S.3       11 UNK        -0.2515 
     48 C48        28.9744  -42.5492  -52.9420 C.3       11 UNK         0.0199 
     49 N          29.5787  -47.4083  -53.2637 N.am      5 UNK        -0.4607 
     50 C          30.2805  -47.6088  -52.1456 C.2       4 UNK         0.5031 
     51 O          31.0795  -46.8059  -51.6648 O.2       4 UNK        -0.5119 
     52 CA         30.0677  -48.9576  -51.4569 C.3       4 UNK         0.0263 
     53 CB         28.5816  -49.3677  -51.3728 C.3       4 UNK        -0.1967 
     54 N          30.8462  -49.9687  -52.1632 N.am      4 UNK        -0.4237 
     55 C          31.2784  -51.1177  -51.6360 C.2       3 UNK         0.4908 
     56 O          31.0451  -51.4693  -50.4791 O.2       3 UNK        -0.5102 
     57 CA         32.1369  -52.0276  -52.5319 C.3       3 UNK         0.0241 
     58 CB         31.2580  -52.9097  -53.4409 C.3       3 UNK        -0.1971 
     59 N          33.1767  -51.3158  -53.2900 N.am      3 UNK        -0.4139 
     60 C          33.0393  -50.4697  -54.3204 C.2       2 UNK         0.5016 
     61 O          31.9537  -50.1459  -54.8130 O.2       2 UNK        -0.5319 
     62 CA         34.3462  -49.8231  -54.8128 C.3       2 UNK         0.0286 
     63 CB         34.3400  -49.5380  -56.3270 C.3       2 UNK        -0.1963 
     64 N          34.6531  -48.6172  -54.0315 N.am      2 UNK        -0.4790 
     65 C          33.9203  -47.4959  -53.9408 C.2       1 UNK         0.5024 
     66 O          32.9100  -47.2760  -54.6059 O.2       1 UNK        -0.4888 
     67 H67        33.5528  -49.4787  -49.6935 H         1 UNK         0.0892 
     68 H68        34.3818  -48.2701  -48.7065 H         1 UNK         0.0892 
     69 H69        32.8237  -47.8914  -49.4437 H         1 UNK         0.0892 
     70 H70        32.9192  -46.7459  -51.3596 H         1 UNK         0.3107 
     71 H71        35.4431  -46.4279  -52.8571 H         1 UNK         0.0773 
     72 H72        34.0360  -44.4236  -52.2494 H         1 UNK         0.0680 
     73 H73        32.7111  -45.0642  -53.1813 H         1 UNK         0.0680 
     74 H74        34.0038  -42.2029  -53.4053 H         1 UNK         0.0650 
     75 H75        34.3852  -41.9028  -55.0779 H         1 UNK         0.0650 
     76 H76        31.6838  -42.7669  -52.7285 H         1 UNK         0.1397 
     77 H77        28.5802  -42.0405  -55.5945 H         1 UNK         0.1363 
     78 H78        32.6769  -42.1582  -56.8545 H         1 UNK         0.1355 
     79 H79        31.0356  -41.4773  -58.4031 H         1 UNK         0.0707 
     80 H80        29.5411  -40.8312  -57.8007 H         1 UNK         0.0707 
     81 H81        27.4648  -41.8026  -57.7515 H         1 UNK         0.1034 
     82 H82        26.9755  -42.6491  -59.1815 H         1 UNK         0.1034 
     83 H83        27.5851  -44.0279  -56.5348 H         1 UNK         0.0482 
     84 H84        23.7380  -44.0819  -56.0951 H         1 UNK         0.3460 
     85 H85        24.6994  -45.3151  -56.8734 H         1 UNK         0.3460 
     86 H86        27.3709  -45.9403  -57.5139 H         1 UNK         0.2989 
     87 H87        25.1625  -47.2650  -59.8856 H         1 UNK         0.0559 
     88 H88        27.1901  -48.3841  -60.8881 H         1 UNK         0.0848 
     89 H89        28.1762  -47.0218  -60.3553 H         1 UNK         0.0848 
     90 H90        26.8993  -46.7750  -61.5314 H         1 UNK         0.0848 
     91 H91        27.3101  -48.3940  -58.3264 H         1 UNK         0.3144 
     92 H92        26.0707  -48.2273  -55.3126 H         1 UNK         0.0727 
     93 H93        25.1771  -50.5211  -54.8210 H         1 UNK         0.0790 
     94 H94        24.6089  -50.6404  -56.4875 H         1 UNK         0.0790 
     95 H95        23.9485  -49.4187  -55.4177 H         1 UNK         0.0790 
     96 H96        28.0310  -49.0284  -55.8534 H         1 UNK         0.3215 
     97 H97        29.3345  -51.5073  -55.9590 H         1 UNK         0.0863 
     98 H98        30.6441  -52.1840  -57.9816 H         1 UNK         0.0808 
     99 H99        29.3791  -51.5308  -59.0227 H         1 UNK         0.0808 
    100 H100       29.0416  -52.9006  -57.9751 H         1 UNK         0.0808 
    101 H101       30.6660  -49.7304  -56.1224 H         1 UNK         0.3118 
    102 H102       31.8727  -47.8818  -57.5737 H         1 UNK         0.0546 
    103 H103       29.5919  -46.0747  -58.5046 H         1 UNK         0.0828 
    104 H104       30.8637  -46.7443  -59.5129 H         1 UNK         0.0828 
    105 H105       31.2624  -45.5681  -58.2703 H         1 UNK         0.0828 
    106 H106       31.4926  -47.0917  -55.5410 H         1 UNK         0.3005 
    107 H107       30.5556  -45.6844  -53.9771 H         1 UNK         0.1257 
    108 H108       28.2301  -44.5456  -54.5206 H         1 UNK         0.0775 
    109 H109       27.5241  -45.7719  -53.5174 H         1 UNK         0.0775 
    110 H110       27.9905  -42.2499  -53.3072 H         1 UNK         0.0840 
    111 H111       29.2280  -41.8484  -52.1453 H         1 UNK         0.0840 
    112 H112       28.9594  -48.1383  -53.5804 H         1 UNK         0.2987 
    113 H113       30.4538  -48.8587  -50.4398 H         1 UNK         0.0785 
    114 H114       28.4511  -50.2299  -50.7186 H         1 UNK         0.0798 
    115 H115       28.1682  -49.6321  -52.3465 H         1 UNK         0.0798 
    116 H116       27.9743  -48.5600  -50.9617 H         1 UNK         0.0798 
    117 H117       31.1177  -49.7593  -53.1217 H         1 UNK         0.3079 
    118 H118       32.6776  -52.6977  -51.8612 H         1 UNK         0.0794 
    119 H119       30.5792  -53.5223  -52.8462 H         1 UNK         0.0786 
    120 H120       31.8638  -53.5874  -54.0424 H         1 UNK         0.0786 
    121 H121       30.6445  -52.3174  -54.1187 H         1 UNK         0.0786 
    122 H122       34.1136  -51.4618  -52.9390 H         1 UNK         0.3032 
    123 H123       35.1544  -50.5336  -54.6297 H         1 UNK         0.1094 
    124 H124       33.6050  -48.7857  -56.5985 H         1 UNK         0.0794 
    125 H125       35.3142  -49.1856  -56.6653 H         1 UNK         0.0794 
    126 H126       34.1044  -50.4403  -56.8927 H         1 UNK         0.0794 
    127 H127       35.4214  -48.7069  -53.3762 H         1 UNK         0.3016 
@<TRIPOS>BOND
     1    1    2 1    
     2    1   67 1    
     3    1   68 1    
     4    1   69 1    
     5    2    3 2    
     6    2    4 am   BACKBONE|DICT|INTERRES
     7    4    5 1    
     8    4   70 1    
     9    5    6 1    
    10    5   65 1    
    11    5   71 1    
    12    6    7 1    
    13    6   72 1    
    14    6   73 1    
    15    7    8 1    
    16    8    9 1    
    17    8   74 1    
    18    8   75 1    
    19    9   10 ar   
    20    9   14 ar   
    21   10   11 ar   
    22   10   76 1    
    23   11   12 ar   
    24   11   48 1    
    25   12   13 ar   
    26   12   77 1    
    27   13   14 ar   
    28   13   15 1    
    29   14   78 1    
    30   15   16 1    
    31   15   79 1    
    32   15   80 1    
    33   16   17 1    
    34   17   18 1    
    35   17   81 1    
    36   17   82 1    
    37   18   19 1    
    38   18   22 1    
    39   18   83 1    
    40   19   20 am   BACKBONE|DICT|INTERRES
    41   19   21 2    
    42   20   84 1    
    43   20   85 1    
    44   22   23 am   BACKBONE|DICT|INTERRES
    45   22   86 1    
    46   23   24 2    
    47   23   25 1    
    48   25   26 1    
    49   25   27 1    
    50   25   87 1    
    51   26   88 1    
    52   26   89 1    
    53   26   90 1    
    54   27   28 am   BACKBONE|DICT|INTERRES
    55   27   91 1    
    56   28   29 2    
    57   28   30 1    
    58   30   31 1    
    59   30   32 1    
    60   30   92 1    
    61   31   93 1    
    62   31   94 1    
    63   31   95 1    
    64   32   33 am   BACKBONE|DICT|INTERRES
    65   32   96 1    
    66   33   34 2    
    67   33   35 1    
    68   35   36 1    
    69   35   37 1    
    70   35   97 1    
    71   36   98 1    
    72   36   99 1    
    73   36  100 1    
    74   37   38 am   BACKBONE|DICT|INTERRES
    75   37  101 1    
    76   38   39 2    
    77   38   40 1    
    78   40   41 1    
    79   40   42 1    
    80   40  102 1    
    81   41  103 1    
    82   41  104 1    
    83   41  105 1    
    84   42   43 am   BACKBONE|DICT|INTERRES
    85   42  106 1    
    86   43   44 2    
    87   43   45 1    
    88   45   46 1    
    89   45   49 1    
    90   45  107 1    
    91   46   47 1    
    92   46  108 1    
    93   46  109 1    
    94   47   48 1    
    95   48  110 1    
    96   48  111 1    
    97   49   50 am   BACKBONE|DICT|INTERRES
    98   49  112 1    
    99   50   51 2    
   100   50   52 1    
   101   52   53 1    
   102   52   54 1    
   103   52  113 1    
   104   53  114 1    
   105   53  115 1    
   106   53  116 1    
   107   54   55 am   BACKBONE|DICT|INTERRES
   108   54  117 1    
   109   55   56 2    
   110   55   57 1    
   111   57   58 1    
   112   57   59 1    
   113   57  118 1    
   114   58  119 1    
   115   58  120 1    
   116   58  121 1    
   117   59   60 am   BACKBONE|DICT|INTERRES
   118   59  122 1    
   119   60   61 2    
   120   60   62 1    
   121   62   63 1    
   122   62   64 1    
   123   62  123 1    
   124   63  124 1    
   125   63  125 1    
   126   63  126 1    
   127   64   65 am   BACKBONE|DICT|INTERRES
   128   64  127 1    
   129   65   66 2    
@<TRIPOS>SUBSTRUCTURE
     1 UNK         1 GROUP             0       ****    0 ROOT    
