@<TRIPOS>MOLECULE
3R134
127   129    1
SMALL
USER_CHARGES


@<TRIPOS>ATOM
      1 CA         30.3104  -45.7055  -50.5723 C.3       0 UNK        -0.1968 
      2 C          31.7823  -45.7758  -50.9490 C.2       0 UNK         0.4852 
      3 O          32.1000  -46.2345  -52.0441 O.2       0 UNK        -0.5359 
      4 N          32.6683  -45.3259  -50.0487 N.am      1 UNK        -0.4300 
      5 CA         34.1332  -45.2701  -50.1587 C.3       1 UNK         0.0863 
      6 C6         34.6618  -43.9911  -50.8844 C.3       11 UNK        -0.0953 
      7 S7         34.4693  -43.8889  -52.6986 S.3       11 UNK        -0.2369 
      8 C8         32.9161  -42.9510  -52.9167 C.3       11 UNK         0.0226 
      9 C9         32.1692  -43.2522  -54.2212 C.ar      11 UNK        -0.0699 
     10 C10        32.7748  -43.9107  -55.3016 C.ar      11 UNK        -0.0804 
     11 C11        32.0601  -44.1907  -56.4676 C.ar      11 UNK        -0.0871 
     12 C12        30.7283  -43.7847  -56.5668 C.ar      11 UNK        -0.1008 
     13 C13        30.1052  -43.1178  -55.5086 C.ar      11 UNK        -0.0735 
     14 C14        30.8319  -42.8543  -54.3414 C.ar      11 UNK        -0.0945 
     15 C15        28.6544  -42.6708  -55.6387 C.3       11 UNK         0.0169 
     16 S16        27.5551  -43.6398  -54.5614 S.3       11 UNK        -0.2669 
     17 C17        25.9056  -43.1818  -55.1991 C.3       11 UNK        -0.0850 
     18 CA         25.1260  -44.4077  -55.7622 C.3       10 UNK         0.0855 
     19 C          23.6253  -44.0983  -56.0554 C.2       10 UNK         0.5543 
     20 N          22.9968  -44.7440  -57.0315 N.am      10 UNK        -0.7343 
     21 O          23.0082  -43.2859  -55.3704 O.2       10 UNK        -0.5027 
     22 N          25.8325  -45.0973  -56.8574 N.am      10 UNK        -0.4495 
     23 C          26.0868  -44.5931  -58.0723 C.2       10 UNK         0.4903 
     24 O          25.7962  -43.4456  -58.4115 O.2       10 UNK        -0.4860 
     25 CA         26.7754  -45.5074  -59.1008 C.3       9 UNK         0.0227 
     26 CB         28.2638  -45.1537  -59.2281 C.3       9 UNK        -0.1964 
     27 N          26.6547  -46.9436  -58.8372 N.am      9 UNK        -0.4231 
     28 C          25.5290  -47.6605  -58.9607 C.2       9 UNK         0.5014 
     29 O          24.4252  -47.1654  -59.1932 O.2       9 UNK        -0.5270 
     30 CA         25.6589  -49.1848  -58.8155 C.3       8 UNK         0.0284 
     31 CB         26.3375  -49.7914  -60.0557 C.3       8 UNK        -0.1977 
     32 N          26.4297  -49.5341  -57.6224 N.am      8 UNK        -0.4342 
     33 C          25.9168  -50.0824  -56.5123 C.2       8 UNK         0.5039 
     34 O          24.7490  -50.4615  -56.4093 O.2       8 UNK        -0.5547 
     35 CA         26.8529  -50.2222  -55.2938 C.3       7 UNK         0.0281 
     36 CB         27.4595  -51.6339  -55.2457 C.3       7 UNK        -0.1963 
     37 N          27.9357  -49.2343  -55.2448 N.am      7 UNK        -0.4444 
     38 C          27.7748  -47.9039  -55.2631 C.2       7 UNK         0.5104 
     39 O          26.6771  -47.3497  -55.2500 O.2       7 UNK        -0.5100 
     40 CA         29.0419  -47.0445  -55.3934 C.3       6 UNK         0.0396 
     41 CB         29.5472  -46.6193  -54.0104 C.3       6 UNK        -0.1801 
     42 N          30.1362  -47.6804  -56.1330 N.am      6 UNK        -0.4747 
     43 C          30.0823  -48.1364  -57.3933 C.2       6 UNK         0.5012 
     44 O          29.0553  -48.1512  -58.0749 O.2       6 UNK        -0.5003 
     45 CA         31.3886  -48.7087  -57.9728 C.3       5 UNK         0.0782 
     46 C46        32.3415  -47.6047  -58.4981 C.3       11 UNK        -0.0868 
     47 S47        33.1721  -46.6292  -57.1897 S.3       11 UNK        -0.2515 
     48 C48        32.7434  -44.9082  -57.6233 C.3       11 UNK         0.0199 
     49 N          32.0392  -49.6083  -57.0166 N.am      5 UNK        -0.4607 
     50 C          31.6459  -50.8676  -56.7895 C.2       4 UNK         0.5031 
     51 O          30.7445  -51.4278  -57.4134 O.2       4 UNK        -0.5119 
     52 CA         32.3684  -51.6260  -55.6641 C.3       4 UNK         0.0263 
     53 CB         33.7374  -52.1351  -56.1433 C.3       4 UNK        -0.1967 
     54 N          32.5402  -50.8508  -54.4313 N.am      4 UNK        -0.4237 
     55 C          31.5582  -50.2939  -53.7107 C.2       3 UNK         0.4908 
     56 O          30.3764  -50.2893  -54.0539 O.2       3 UNK        -0.5102 
     57 CA         31.9422  -49.6313  -52.3772 C.3       3 UNK         0.0241 
     58 CB         32.0090  -50.6693  -51.2406 C.3       3 UNK        -0.1971 
     59 N          33.1493  -48.7952  -52.4179 N.am      3 UNK        -0.4139 
     60 C          34.4314  -49.1538  -52.5814 C.2       2 UNK         0.5016 
     61 O          34.7935  -50.3092  -52.8091 O.2       2 UNK        -0.5319 
     62 CA         35.4960  -48.0424  -52.5074 C.3       2 UNK         0.0286 
     63 CB         36.0099  -47.7079  -53.9178 C.3       2 UNK        -0.1963 
     64 N          35.0188  -46.8077  -51.8796 N.am      2 UNK        -0.4790 
     65 C          34.7644  -46.6231  -50.5786 C.2       1 UNK         0.5024 
     66 O          34.9801  -47.4797  -49.7197 O.2       1 UNK        -0.4888 
     67 H67        29.7847  -45.0386  -51.2554 H         1 UNK         0.0892 
     68 H68        29.8579  -46.6940  -50.6455 H         1 UNK         0.0892 
     69 H69        30.1633  -45.3381  -49.5570 H         1 UNK         0.0892 
     70 H70        32.3116  -44.9959  -49.1628 H         1 UNK         0.3107 
     71 H71        34.4541  -45.1482  -49.1226 H         1 UNK         0.0773 
     72 H72        35.7286  -43.8885  -50.6791 H         1 UNK         0.0680 
     73 H73        34.2037  -43.1057  -50.4410 H         1 UNK         0.0680 
     74 H74        33.1437  -41.8854  -52.8749 H         1 UNK         0.0650 
     75 H75        32.2550  -43.1598  -52.0757 H         1 UNK         0.0650 
     76 H76        33.8072  -44.2238  -55.2522 H         1 UNK         0.1397 
     77 H77        30.1809  -43.9739  -57.4760 H         1 UNK         0.1363 
     78 H78        30.3482  -42.3420  -53.5209 H         1 UNK         0.1355 
     79 H79        28.5718  -41.6137  -55.3825 H         1 UNK         0.0707 
     80 H80        28.3186  -42.7679  -56.6725 H         1 UNK         0.0707 
     81 H81        25.9910  -42.3981  -55.9530 H         1 UNK         0.1034 
     82 H82        25.3593  -42.7334  -54.3675 H         1 UNK         0.1034 
     83 H83        25.0820  -45.1418  -54.9573 H         1 UNK         0.0482 
     84 H84        22.0244  -44.5480  -57.2090 H         1 UNK         0.3460 
     85 H85        23.4898  -45.4184  -57.5988 H         1 UNK         0.3460 
     86 H86        26.1216  -46.0444  -56.6373 H         1 UNK         0.2989 
     87 H87        26.3022  -45.3086  -60.0647 H         1 UNK         0.0559 
     88 H88        28.4079  -44.0834  -59.3825 H         1 UNK         0.0848 
     89 H89        28.7227  -45.6682  -60.0725 H         1 UNK         0.0848 
     90 H90        28.8090  -45.4387  -58.3303 H         1 UNK         0.0848 
     91 H91        27.5253  -47.4293  -58.6278 H         1 UNK         0.3144 
     92 H92        24.6489  -49.5955  -58.7534 H         1 UNK         0.0727 
     93 H93        26.3655  -50.8795  -59.9954 H         1 UNK         0.0790 
     94 H94        27.3628  -49.4383  -60.1745 H         1 UNK         0.0790 
     95 H95        25.7937  -49.5314  -60.9650 H         1 UNK         0.0790 
     96 H96        27.4009  -49.2407  -57.6065 H         1 UNK         0.3215 
     97 H97        26.2427  -50.0781  -54.3999 H         1 UNK         0.0863 
     98 H98        28.0282  -51.7901  -54.3288 H         1 UNK         0.0808 
     99 H99        28.1288  -51.8127  -56.0885 H         1 UNK         0.0808 
    100 H100       26.6810  -52.3974  -55.2768 H         1 UNK         0.0808 
    101 H101       28.8815  -49.5978  -55.1611 H         1 UNK         0.3118 
    102 H102       28.7646  -46.1430  -55.9425 H         1 UNK         0.0546 
    103 H103       28.7549  -46.1451  -53.4307 H         1 UNK         0.0828 
    104 H104       30.3606  -45.8979  -54.0929 H         1 UNK         0.0828 
    105 H105       29.9059  -47.4696  -53.4331 H         1 UNK         0.0828 
    106 H106       31.0288  -47.7135  -55.6630 H         1 UNK         0.3005 
    107 H107       31.0942  -49.3036  -58.8414 H         1 UNK         0.1257 
    108 H108       33.1275  -48.0711  -59.0939 H         1 UNK         0.0775 
    109 H109       31.8101  -46.9517  -59.1919 H         1 UNK         0.0775 
    110 H110       33.6602  -44.3757  -57.8804 H         1 UNK         0.0840 
    111 H111       32.1185  -44.8708  -58.5158 H         1 UNK         0.0840 
    112 H112       32.7928  -49.2186  -56.4694 H         1 UNK         0.2987 
    113 H113       31.7533  -52.4926  -55.4129 H         1 UNK         0.0785 
    114 H114       34.2075  -52.7720  -55.3936 H         1 UNK         0.0798 
    115 H115       34.4217  -51.3139  -56.3604 H         1 UNK         0.0798 
    116 H116       33.6379  -52.7279  -57.0537 H         1 UNK         0.0798 
    117 H117       33.4763  -50.8056  -54.0342 H         1 UNK         0.3079 
    118 H118       31.1317  -48.9457  -52.1289 H         1 UNK         0.0794 
    119 H119       31.0646  -51.2078  -51.1513 H         1 UNK         0.0786 
    120 H120       32.2019  -50.1912  -50.2801 H         1 UNK         0.0786 
    121 H121       32.7895  -51.4119  -51.4083 H         1 UNK         0.0786 
    122 H122       32.9600  -47.7989  -52.2983 H         1 UNK         0.3032 
    123 H123       36.3275  -48.4299  -51.9146 H         1 UNK         0.1094 
    124 H124       35.2176  -47.3047  -54.5506 H         1 UNK         0.0794 
    125 H125       36.8162  -46.9750  -53.8827 H         1 UNK         0.0794 
    126 H126       36.4032  -48.5967  -54.4134 H         1 UNK         0.0794 
    127 H127       34.7650  -46.0473  -52.5002 H         1 UNK         0.3016 
@<TRIPOS>BOND
     1    1    2 1    
     2    1   67 1    
     3    1   68 1    
     4    1   69 1    
     5    2    3 2    
     6    2    4 am   BACKBONE|DICT|INTERRES
     7    4    5 1    
     8    4   70 1    
     9    5    6 1    
    10    5   65 1    
    11    5   71 1    
    12    6    7 1    
    13    6   72 1    
    14    6   73 1    
    15    7    8 1    
    16    8    9 1    
    17    8   74 1    
    18    8   75 1    
    19    9   10 ar   
    20    9   14 ar   
    21   10   11 ar   
    22   10   76 1    
    23   11   12 ar   
    24   11   48 1    
    25   12   13 ar   
    26   12   77 1    
    27   13   14 ar   
    28   13   15 1    
    29   14   78 1    
    30   15   16 1    
    31   15   79 1    
    32   15   80 1    
    33   16   17 1    
    34   17   18 1    
    35   17   81 1    
    36   17   82 1    
    37   18   19 1    
    38   18   22 1    
    39   18   83 1    
    40   19   20 am   BACKBONE|DICT|INTERRES
    41   19   21 2    
    42   20   84 1    
    43   20   85 1    
    44   22   23 am   BACKBONE|DICT|INTERRES
    45   22   86 1    
    46   23   24 2    
    47   23   25 1    
    48   25   26 1    
    49   25   27 1    
    50   25   87 1    
    51   26   88 1    
    52   26   89 1    
    53   26   90 1    
    54   27   28 am   BACKBONE|DICT|INTERRES
    55   27   91 1    
    56   28   29 2    
    57   28   30 1    
    58   30   31 1    
    59   30   32 1    
    60   30   92 1    
    61   31   93 1    
    62   31   94 1    
    63   31   95 1    
    64   32   33 am   BACKBONE|DICT|INTERRES
    65   32   96 1    
    66   33   34 2    
    67   33   35 1    
    68   35   36 1    
    69   35   37 1    
    70   35   97 1    
    71   36   98 1    
    72   36   99 1    
    73   36  100 1    
    74   37   38 am   BACKBONE|DICT|INTERRES
    75   37  101 1    
    76   38   39 2    
    77   38   40 1    
    78   40   41 1    
    79   40   42 1    
    80   40  102 1    
    81   41  103 1    
    82   41  104 1    
    83   41  105 1    
    84   42   43 am   BACKBONE|DICT|INTERRES
    85   42  106 1    
    86   43   44 2    
    87   43   45 1    
    88   45   46 1    
    89   45   49 1    
    90   45  107 1    
    91   46   47 1    
    92   46  108 1    
    93   46  109 1    
    94   47   48 1    
    95   48  110 1    
    96   48  111 1    
    97   49   50 am   BACKBONE|DICT|INTERRES
    98   49  112 1    
    99   50   51 2    
   100   50   52 1    
   101   52   53 1    
   102   52   54 1    
   103   52  113 1    
   104   53  114 1    
   105   53  115 1    
   106   53  116 1    
   107   54   55 am   BACKBONE|DICT|INTERRES
   108   54  117 1    
   109   55   56 2    
   110   55   57 1    
   111   57   58 1    
   112   57   59 1    
   113   57  118 1    
   114   58  119 1    
   115   58  120 1    
   116   58  121 1    
   117   59   60 am   BACKBONE|DICT|INTERRES
   118   59  122 1    
   119   60   61 2    
   120   60   62 1    
   121   62   63 1    
   122   62   64 1    
   123   62  123 1    
   124   63  124 1    
   125   63  125 1    
   126   63  126 1    
   127   64   65 am   BACKBONE|DICT|INTERRES
   128   64  127 1    
   129   65   66 2    
@<TRIPOS>SUBSTRUCTURE
     1 UNK         1 GROUP             0       ****    0 ROOT    
