@<TRIPOS>MOLECULE
3R134
127   129    1
SMALL
USER_CHARGES


@<TRIPOS>ATOM
      1 CA         31.4224  -43.9521  -48.6051 C.3       0 UNK        -0.1968 
      2 C          32.6432  -44.8516  -48.7321 C.2       0 UNK         0.4852 
      3 O          33.1064  -45.4000  -47.7312 O.2       0 UNK        -0.5359 
      4 N          33.1663  -45.0055  -49.9558 N.am      1 UNK        -0.4300 
      5 CA         34.3242  -45.8494  -50.2781 C.3       1 UNK         0.0863 
      6 C6         34.9438  -45.4770  -51.6508 C.3       11 UNK        -0.0953 
      7 S7         33.7605  -45.5440  -53.0443 S.3       11 UNK        -0.2369 
      8 C8         33.6956  -43.7936  -53.5251 C.3       11 UNK         0.0226 
      9 C9         32.6484  -43.5462  -54.5999 C.ar      11 UNK        -0.0699 
     10 C10        32.9665  -43.7261  -55.9482 C.ar      11 UNK        -0.0804 
     11 C11        32.0244  -43.4445  -56.9421 C.ar      11 UNK        -0.0871 
     12 C12        30.7570  -42.9798  -56.5770 C.ar      11 UNK        -0.1008 
     13 C13        30.4136  -42.8146  -55.2270 C.ar      11 UNK        -0.0735 
     14 C14        31.3710  -43.1015  -54.2485 C.ar      11 UNK        -0.0945 
     15 C15        29.0478  -42.2987  -54.7620 C.3       11 UNK         0.0169 
     16 S16        27.7477  -42.1691  -56.0384 S.3       11 UNK        -0.2669 
     17 C17        27.4241  -43.9318  -56.3695 C.3       11 UNK        -0.0850 
     18 CA         26.2911  -44.1697  -57.4012 C.3       10 UNK         0.0855 
     19 C          26.7853  -44.0561  -58.8775 C.2       10 UNK         0.5543 
     20 N          26.6058  -45.0586  -59.7295 N.am      10 UNK        -0.7343 
     21 O          27.3204  -43.0234  -59.2720 O.2       10 UNK        -0.5027 
     22 N          25.5656  -45.4131  -57.0961 N.am      10 UNK        -0.4495 
     23 C          24.2814  -45.6350  -57.4016 C.2       10 UNK         0.4903 
     24 O          23.5435  -44.7826  -57.8998 O.2       10 UNK        -0.4860 
     25 CA         23.7279  -47.0441  -57.0986 C.3       9 UNK         0.0227 
     26 CB         22.4284  -47.3453  -57.8747 C.3       9 UNK        -0.1964 
     27 N          24.6928  -48.1339  -57.2999 N.am      9 UNK        -0.4231 
     28 C          25.4060  -48.4117  -58.4006 C.2       9 UNK         0.5014 
     29 O          25.3982  -47.7057  -59.4108 O.2       9 UNK        -0.5270 
     30 CA         26.2639  -49.6956  -58.3679 C.3       8 UNK         0.0284 
     31 CB         27.1850  -49.8134  -59.5968 C.3       8 UNK        -0.1977 
     32 N          27.0724  -49.8303  -57.1500 N.am      8 UNK        -0.4342 
     33 C          26.6110  -50.1715  -55.9387 C.2       8 UNK         0.5039 
     34 O          25.4232  -50.4039  -55.7084 O.2       8 UNK        -0.5547 
     35 CA         27.6217  -50.2178  -54.7806 C.3       7 UNK         0.0281 
     36 CB         28.3890  -51.5488  -54.7797 C.3       7 UNK        -0.1963 
     37 N          28.5691  -49.1017  -54.7946 N.am      7 UNK        -0.4444 
     38 C          28.2374  -47.8090  -54.6621 C.2       7 UNK         0.5104 
     39 O          27.0870  -47.3977  -54.5056 O.2       7 UNK        -0.5100 
     40 CA         29.3919  -46.7993  -54.7513 C.3       6 UNK         0.0396 
     41 CB         30.1542  -46.7124  -53.4204 C.3       6 UNK        -0.1801 
     42 N          30.3146  -47.1048  -55.8465 N.am      6 UNK        -0.4747 
     43 C          29.9834  -47.0727  -57.1471 C.2       6 UNK         0.5012 
     44 O          28.8663  -46.7639  -57.5624 O.2       6 UNK        -0.5003 
     45 CA         31.0690  -47.5194  -58.1497 C.3       5 UNK         0.0782 
     46 C46        32.1398  -46.4260  -58.3872 C.3       11 UNK        -0.0868 
     47 S47        31.4768  -44.9498  -59.2312 S.3       11 UNK        -0.2515 
     48 C48        32.3897  -43.6009  -58.4133 C.3       11 UNK         0.0199 
     49 N          31.6899  -48.7861  -57.7490 N.am      5 UNK        -0.4607 
     50 C          31.0442  -49.9548  -57.6258 C.2       4 UNK         0.5031 
     51 O          29.8534  -50.1108  -57.8864 O.2       4 UNK        -0.5119 
     52 CA         31.8503  -51.1416  -57.0674 C.3       4 UNK         0.0263 
     53 CB         32.5711  -51.8836  -58.2038 C.3       4 UNK        -0.1967 
     54 N          32.8195  -50.7642  -56.0317 N.am      4 UNK        -0.4237 
     55 C          32.5162  -50.1186  -54.8967 C.2       3 UNK         0.4908 
     56 O          31.3715  -49.7705  -54.5947 O.2       3 UNK        -0.5102 
     57 CA         33.7029  -49.7504  -53.9911 C.3       3 UNK         0.0241 
     58 CB         34.6069  -48.7116  -54.6795 C.3       3 UNK        -0.1971 
     59 N          33.2456  -49.1959  -52.7177 N.am      3 UNK        -0.4139 
     60 C          32.7726  -49.9085  -51.6861 C.2       2 UNK         0.5016 
     61 O          32.7531  -51.1409  -51.6610 O.2       2 UNK        -0.5319 
     62 CA         32.2167  -49.1072  -50.4877 C.3       2 UNK         0.0286 
     63 CB         32.3786  -49.8529  -49.1455 C.3       2 UNK        -0.1963 
     64 N          32.7419  -47.7353  -50.3964 N.am      2 UNK        -0.4790 
     65 C          34.0183  -47.3615  -50.2008 C.2       1 UNK         0.5024 
     66 O          34.9437  -48.1493  -50.0012 O.2       1 UNK        -0.4888 
     67 H67        31.6347  -43.1258  -47.9271 H         1 UNK         0.0892 
     68 H68        30.5814  -44.5160  -48.2022 H         1 UNK         0.0892 
     69 H69        31.1209  -43.5334  -49.5651 H         1 UNK         0.0892 
     70 H70        32.7485  -44.5286  -50.7415 H         1 UNK         0.3107 
     71 H71        35.0858  -45.6568  -49.5190 H         1 UNK         0.0773 
     72 H72        35.3726  -44.4756  -51.5905 H         1 UNK         0.0680 
     73 H73        35.7849  -46.1328  -51.8848 H         1 UNK         0.0680 
     74 H74        34.6779  -43.4837  -53.8850 H         1 UNK         0.0650 
     75 H75        33.4827  -43.1820  -52.6470 H         1 UNK         0.0650 
     76 H76        33.9548  -44.0703  -56.2209 H         1 UNK         0.1397 
     77 H77        30.0473  -42.7496  -57.3590 H         1 UNK         0.1363 
     78 H78        31.1248  -42.9617  -53.2047 H         1 UNK         0.1355 
     79 H79        29.1900  -41.3077  -54.3290 H         1 UNK         0.0707 
     80 H80        28.6777  -42.9347  -53.9562 H         1 UNK         0.0707 
     81 H81        27.1586  -44.3850  -55.4131 H         1 UNK         0.1034 
     82 H82        28.3466  -44.4154  -56.6894 H         1 UNK         0.1034 
     83 H83        25.5730  -43.3567  -57.2775 H         1 UNK         0.0482 
     84 H84        26.1620  -45.9256  -59.4415 H         1 UNK         0.3460 
     85 H85        26.9281  -44.9570  -60.6777 H         1 UNK         0.3460 
     86 H86        26.1158  -46.1742  -56.7218 H         1 UNK         0.2989 
     87 H87        23.4864  -47.0489  -56.0349 H         1 UNK         0.0559 
     88 H88        22.0329  -48.3289  -57.6216 H         1 UNK         0.0848 
     89 H89        22.5889  -47.3157  -58.9531 H         1 UNK         0.0848 
     90 H90        21.6507  -46.6172  -57.6404 H         1 UNK         0.0848 
     91 H91        24.7891  -48.7932  -56.5301 H         1 UNK         0.3144 
     92 H92        25.5659  -50.5346  -58.4032 H         1 UNK         0.0727 
     93 H93        27.7386  -50.7524  -59.5895 H         1 UNK         0.0790 
     94 H94        27.9085  -48.9975  -59.6320 H         1 UNK         0.0790 
     95 H95        26.6124  -49.7855  -60.5247 H         1 UNK         0.0790 
     96 H96        28.0731  -49.6847  -57.2640 H         1 UNK         0.3215 
     97 H97        27.0569  -50.1516  -53.8483 H         1 UNK         0.0863 
     98 H98        29.0873  -51.6060  -53.9443 H         1 UNK         0.0808 
     99 H99        28.9557  -51.6865  -55.7002 H         1 UNK         0.0808 
    100 H100       27.7038  -52.3927  -54.6903 H         1 UNK         0.0808 
    101 H101       29.5567  -49.3354  -54.8788 H         1 UNK         0.3118 
    102 H102       28.9642  -45.8162  -54.9417 H         1 UNK         0.0546 
    103 H103       30.6656  -47.6434  -53.1783 H         1 UNK         0.0828 
    104 H104       29.4747  -46.4893  -52.5969 H         1 UNK         0.0828 
    105 H105       30.8948  -45.9152  -53.4487 H         1 UNK         0.0828 
    106 H106       31.2322  -47.4353  -55.5872 H         1 UNK         0.3005 
    107 H107       30.5612  -47.7063  -59.0992 H         1 UNK         0.1257 
    108 H108       32.6148  -46.1450  -57.4463 H         1 UNK         0.0775 
    109 H109       32.9381  -46.8201  -59.0180 H         1 UNK         0.0775 
    110 H110       33.4607  -43.7711  -58.5346 H         1 UNK         0.0840 
    111 H111       32.1716  -42.6667  -58.9328 H         1 UNK         0.0840 
    112 H112       32.6702  -48.7557  -57.5136 H         1 UNK         0.2987 
    113 H113       31.1405  -51.8325  -56.6095 H         1 UNK         0.0785 
    114 H114       31.8653  -52.1913  -58.9770 H         1 UNK         0.0798 
    115 H115       33.0624  -52.7864  -57.8404 H         1 UNK         0.0798 
    116 H116       33.3260  -51.2584  -58.6822 H         1 UNK         0.0798 
    117 H117       33.7832  -51.0118  -56.2054 H         1 UNK         0.3079 
    118 H118       34.2832  -50.6542  -53.7937 H         1 UNK         0.0794 
    119 H119       35.0834  -49.1250  -55.5690 H         1 UNK         0.0786 
    120 H120       35.4064  -48.3799  -54.0163 H         1 UNK         0.0786 
    121 H121       34.0462  -47.8295  -54.9917 H         1 UNK         0.0786 
    122 H122       33.2072  -48.1893  -52.6540 H         1 UNK         0.3032 
    123 H123       31.1463  -49.0094  -50.6774 H         1 UNK         0.1094 
    124 H124       31.9749  -49.2709  -48.3170 H         1 UNK         0.0794 
    125 H125       31.8463  -50.8048  -49.1600 H         1 UNK         0.0794 
    126 H126       33.4238  -50.0712  -48.9251 H         1 UNK         0.0794 
    127 H127       32.0670  -46.9983  -50.5457 H         1 UNK         0.3016 
@<TRIPOS>BOND
     1    1    2 1    
     2    1   67 1    
     3    1   68 1    
     4    1   69 1    
     5    2    3 2    
     6    2    4 am   BACKBONE|DICT|INTERRES
     7    4    5 1    
     8    4   70 1    
     9    5    6 1    
    10    5   65 1    
    11    5   71 1    
    12    6    7 1    
    13    6   72 1    
    14    6   73 1    
    15    7    8 1    
    16    8    9 1    
    17    8   74 1    
    18    8   75 1    
    19    9   10 ar   
    20    9   14 ar   
    21   10   11 ar   
    22   10   76 1    
    23   11   12 ar   
    24   11   48 1    
    25   12   13 ar   
    26   12   77 1    
    27   13   14 ar   
    28   13   15 1    
    29   14   78 1    
    30   15   16 1    
    31   15   79 1    
    32   15   80 1    
    33   16   17 1    
    34   17   18 1    
    35   17   81 1    
    36   17   82 1    
    37   18   19 1    
    38   18   22 1    
    39   18   83 1    
    40   19   20 am   BACKBONE|DICT|INTERRES
    41   19   21 2    
    42   20   84 1    
    43   20   85 1    
    44   22   23 am   BACKBONE|DICT|INTERRES
    45   22   86 1    
    46   23   24 2    
    47   23   25 1    
    48   25   26 1    
    49   25   27 1    
    50   25   87 1    
    51   26   88 1    
    52   26   89 1    
    53   26   90 1    
    54   27   28 am   BACKBONE|DICT|INTERRES
    55   27   91 1    
    56   28   29 2    
    57   28   30 1    
    58   30   31 1    
    59   30   32 1    
    60   30   92 1    
    61   31   93 1    
    62   31   94 1    
    63   31   95 1    
    64   32   33 am   BACKBONE|DICT|INTERRES
    65   32   96 1    
    66   33   34 2    
    67   33   35 1    
    68   35   36 1    
    69   35   37 1    
    70   35   97 1    
    71   36   98 1    
    72   36   99 1    
    73   36  100 1    
    74   37   38 am   BACKBONE|DICT|INTERRES
    75   37  101 1    
    76   38   39 2    
    77   38   40 1    
    78   40   41 1    
    79   40   42 1    
    80   40  102 1    
    81   41  103 1    
    82   41  104 1    
    83   41  105 1    
    84   42   43 am   BACKBONE|DICT|INTERRES
    85   42  106 1    
    86   43   44 2    
    87   43   45 1    
    88   45   46 1    
    89   45   49 1    
    90   45  107 1    
    91   46   47 1    
    92   46  108 1    
    93   46  109 1    
    94   47   48 1    
    95   48  110 1    
    96   48  111 1    
    97   49   50 am   BACKBONE|DICT|INTERRES
    98   49  112 1    
    99   50   51 2    
   100   50   52 1    
   101   52   53 1    
   102   52   54 1    
   103   52  113 1    
   104   53  114 1    
   105   53  115 1    
   106   53  116 1    
   107   54   55 am   BACKBONE|DICT|INTERRES
   108   54  117 1    
   109   55   56 2    
   110   55   57 1    
   111   57   58 1    
   112   57   59 1    
   113   57  118 1    
   114   58  119 1    
   115   58  120 1    
   116   58  121 1    
   117   59   60 am   BACKBONE|DICT|INTERRES
   118   59  122 1    
   119   60   61 2    
   120   60   62 1    
   121   62   63 1    
   122   62   64 1    
   123   62  123 1    
   124   63  124 1    
   125   63  125 1    
   126   63  126 1    
   127   64   65 am   BACKBONE|DICT|INTERRES
   128   64  127 1    
   129   65   66 2    
@<TRIPOS>SUBSTRUCTURE
     1 UNK         1 GROUP             0       ****    0 ROOT    
