@<TRIPOS>MOLECULE
3R134
127   129    1
SMALL
USER_CHARGES


@<TRIPOS>ATOM
      1 CA         39.8520  -47.3406  -54.2834 C.3       0 UNK        -0.1968 
      2 C          38.4366  -47.3421  -54.8423 C.2       0 UNK         0.4852 
      3 O          38.1786  -48.0086  -55.8456 O.2       0 UNK        -0.5359 
      4 N          37.5233  -46.5964  -54.2042 N.am      1 UNK        -0.4300 
      5 CA         36.1068  -46.4980  -54.5740 C.3       1 UNK         0.0863 
      6 C6         35.4257  -45.3165  -53.8330 C.3       11 UNK        -0.0953 
      7 S7         33.6957  -45.0418  -54.3334 S.3       11 UNK        -0.2369 
      8 C8         33.2727  -43.5647  -53.3743 C.3       11 UNK         0.0226 
      9 C9         31.7695  -43.3332  -53.3690 C.ar      11 UNK        -0.0699 
     10 C10        31.0007  -43.7597  -52.2803 C.ar      11 UNK        -0.0804 
     11 C11        29.6299  -43.4916  -52.2331 C.ar      11 UNK        -0.0871 
     12 C12        29.0380  -42.7833  -53.2808 C.ar      11 UNK        -0.1008 
     13 C13        29.7770  -42.4081  -54.4032 C.ar      11 UNK        -0.0735 
     14 C14        31.1492  -42.6764  -54.4393 C.ar      11 UNK        -0.0945 
     15 C15        29.0779  -41.6813  -55.5445 C.3       11 UNK         0.0169 
     16 S16        27.7100  -42.6684  -56.2493 S.3       11 UNK        -0.2669 
     17 C17        28.5335  -43.5150  -57.6362 C.3       11 UNK        -0.0850 
     18 CA         27.5130  -44.0798  -58.6633 C.3       10 UNK         0.0855 
     19 C          28.1702  -44.3353  -60.0546 C.2       10 UNK         0.5543 
     20 N          27.9855  -45.4820  -60.6969 N.am      10 UNK        -0.7343 
     21 O          28.8559  -43.4603  -60.5776 O.2       10 UNK        -0.5027 
     22 N          26.7786  -45.2381  -58.1216 N.am      10 UNK        -0.4495 
     23 C          25.5286  -45.5808  -58.4614 C.2       10 UNK         0.4903 
     24 O          24.8007  -44.8910  -59.1774 O.2       10 UNK        -0.4860 
     25 CA         25.0270  -46.9444  -57.9343 C.3       9 UNK         0.0227 
     26 CB         23.7176  -47.4087  -58.6068 C.3       9 UNK        -0.1964 
     27 N          26.0543  -47.9944  -58.0115 N.am      9 UNK        -0.4231 
     28 C          26.7155  -48.3896  -59.1106 C.2       9 UNK         0.5014 
     29 O          26.4448  -47.9881  -60.2430 O.2       9 UNK        -0.5270 
     30 CA         27.9129  -49.3403  -58.9445 C.3       8 UNK         0.0284 
     31 CB         29.2053  -48.6753  -59.4557 C.3       8 UNK        -0.1977 
     32 N          28.1374  -49.7921  -57.5655 N.am      8 UNK        -0.4342 
     33 C          28.4328  -51.0591  -57.2397 C.2       8 UNK         0.5039 
     34 O          28.4338  -51.9893  -58.0480 O.2       8 UNK        -0.5547 
     35 CA         28.8233  -51.3615  -55.7832 C.3       7 UNK         0.0281 
     36 CB         30.3493  -51.2994  -55.6034 C.3       7 UNK        -0.1963 
     37 N          28.1786  -50.5020  -54.7899 N.am      7 UNK        -0.4444 
     38 C          26.8961  -50.6227  -54.4197 C.2       7 UNK         0.5104 
     39 O          26.0916  -51.3803  -54.9623 O.2       7 UNK        -0.5100 
     40 CA         26.4392  -49.7690  -53.2302 C.3       6 UNK         0.0396 
     41 CB         26.9132  -50.3906  -51.9061 C.3       6 UNK        -0.1801 
     42 N          26.9534  -48.4064  -53.3329 N.am      6 UNK        -0.4747 
     43 C          26.2861  -47.3841  -53.8812 C.2       6 UNK         0.5012 
     44 O          25.1469  -47.4754  -54.3384 O.2       6 UNK        -0.5003 
     45 CA         27.0149  -46.0255  -53.9337 C.3       5 UNK         0.0782 
     46 C46        26.7969  -45.2535  -52.6003 C.3       11 UNK        -0.0868 
     47 S47        28.0511  -45.5885  -51.3044 S.3       11 UNK        -0.2515 
     48 C48        28.7904  -43.9410  -51.0447 C.3       11 UNK         0.0199 
     49 N          28.4326  -46.1539  -54.2987 N.am      5 UNK        -0.4607 
     50 C          28.9041  -46.7472  -55.4026 C.2       4 UNK         0.5031 
     51 O          28.1909  -47.0986  -56.3395 O.2       4 UNK        -0.5119 
     52 CA         30.4049  -47.0771  -55.4679 C.3       4 UNK         0.0263 
     53 CB         31.1392  -46.1141  -56.4096 C.3       4 UNK        -0.1967 
     54 N          31.0829  -47.1326  -54.1672 N.am      4 UNK        -0.4237 
     55 C          30.7616  -47.9696  -53.1695 C.2       3 UNK         0.4908 
     56 O          29.8337  -48.7794  -53.2346 O.2       3 UNK        -0.5102 
     57 CA         31.6126  -47.8660  -51.8924 C.3       3 UNK         0.0241 
     58 CB         30.9745  -48.6007  -50.6941 C.3       3 UNK        -0.1971 
     59 N          32.9940  -48.3133  -52.1093 N.am      3 UNK        -0.4139 
     60 C          33.4164  -49.5222  -52.5179 C.2       2 UNK         0.5016 
     61 O          32.6736  -50.4794  -52.7403 O.2       2 UNK        -0.5319 
     62 CA         34.9434  -49.6823  -52.6940 C.3       2 UNK         0.0286 
     63 CB         35.3249  -50.9002  -53.5638 C.3       2 UNK        -0.1963 
     64 N          35.6015  -48.4618  -53.1865 N.am      2 UNK        -0.4790 
     65 C          35.3591  -47.8315  -54.3485 C.2       1 UNK         0.5024 
     66 O          34.5793  -48.2429  -55.2086 O.2       1 UNK        -0.4888 
     67 H67        40.5521  -46.9787  -55.0360 H         1 UNK         0.0892 
     68 H68        39.9435  -46.7052  -53.4027 H         1 UNK         0.0892 
     69 H69        40.1454  -48.3520  -54.0033 H         1 UNK         0.0892 
     70 H70        37.8062  -46.0601  -53.3961 H         1 UNK         0.3107 
     71 H71        36.0666  -46.2856  -55.6449 H         1 UNK         0.0773 
     72 H72        35.4548  -45.4695  -52.7526 H         1 UNK         0.0680 
     73 H73        35.9774  -44.3949  -54.0261 H         1 UNK         0.0680 
     74 H74        33.6409  -43.6750  -52.3530 H         1 UNK         0.0650 
     75 H75        33.7852  -42.6994  -53.7974 H         1 UNK         0.0650 
     76 H76        31.4731  -44.2811  -51.4590 H         1 UNK         0.1397 
     77 H77        27.9903  -42.5254  -53.2414 H         1 UNK         0.1363 
     78 H78        31.7390  -42.3642  -55.2902 H         1 UNK         0.1355 
     79 H79        28.6659  -40.7483  -55.1575 H         1 UNK         0.0707 
     80 H80        29.7855  -41.3986  -56.3251 H         1 UNK         0.0707 
     81 H81        29.2018  -42.7935  -58.1095 H         1 UNK         0.1034 
     82 H82        29.1693  -44.3063  -57.2454 H         1 UNK         0.1034 
     83 H83        26.7875  -43.2868  -58.8547 H         1 UNK         0.0482 
     84 H84        27.3810  -46.2076  -60.3307 H         1 UNK         0.3460 
     85 H85        28.4186  -45.6066  -61.5977 H         1 UNK         0.3460 
     86 H86        27.3110  -45.8766  -57.5379 H         1 UNK         0.2989 
     87 H87        24.8164  -46.7965  -56.8754 H         1 UNK         0.0559 
     88 H88        22.9185  -46.6836  -58.4484 H         1 UNK         0.0848 
     89 H89        23.3767  -48.3590  -58.1962 H         1 UNK         0.0848 
     90 H90        23.8356  -47.5313  -59.6839 H         1 UNK         0.0848 
     91 H91        26.3809  -48.3375  -57.1199 H         1 UNK         0.3144 
     92 H92        27.6935  -50.1939  -59.5890 H         1 UNK         0.0727 
     93 H93        29.4550  -47.7863  -58.8754 H         1 UNK         0.0790 
     94 H94        29.1073  -48.3680  -60.4977 H         1 UNK         0.0790 
     95 H95        30.0521  -49.3596  -59.4021 H         1 UNK         0.0790 
     96 H96        28.1880  -49.0680  -56.8572 H         1 UNK         0.3215 
     97 H97        28.5140  -52.3892  -55.5789 H         1 UNK         0.0863 
     98 H98        30.6422  -51.5756  -54.5899 H         1 UNK         0.0808 
     99 H99        30.7465  -50.3055  -55.8018 H         1 UNK         0.0808 
    100 H100       30.8500  -51.9895  -56.2838 H         1 UNK         0.0808 
    101 H101       28.7813  -49.8748  -54.2590 H         1 UNK         0.3118 
    102 H102       25.3471  -49.7569  -53.2205 H         1 UNK         0.0546 
    103 H103       28.0015  -50.4297  -51.8400 H         1 UNK         0.0828 
    104 H104       26.5425  -51.4109  -51.7993 H         1 UNK         0.0828 
    105 H105       26.5483  -49.8221  -51.0507 H         1 UNK         0.0828 
    106 H106       27.9132  -48.2607  -53.0356 H         1 UNK         0.3005 
    107 H107       26.5375  -45.4553  -54.7341 H         1 UNK         0.1257 
    108 H108       26.7550  -44.1883  -52.8060 H         1 UNK         0.0775 
    109 H109       25.8140  -45.4660  -52.1737 H         1 UNK         0.0775 
    110 H110       28.0021  -43.2150  -50.8393 H         1 UNK         0.0840 
    111 H111       29.4088  -43.9736  -50.1465 H         1 UNK         0.0840 
    112 H112       29.0873  -45.8701  -53.5840 H         1 UNK         0.2987 
    113 H113       30.4799  -48.0719  -55.9060 H         1 UNK         0.0785 
    114 H114       30.6814  -46.1080  -57.3993 H         1 UNK         0.0798 
    115 H115       32.1785  -46.4133  -56.5464 H         1 UNK         0.0798 
    116 H116       31.1277  -45.0920  -56.0311 H         1 UNK         0.0798 
    117 H117       31.8687  -46.5057  -54.0488 H         1 UNK         0.3079 
    118 H118       31.6622  -46.8074  -51.6340 H         1 UNK         0.0794 
    119 H119       31.5630  -48.4660  -49.7868 H         1 UNK         0.0786 
    120 H120       30.8781  -49.6718  -50.8756 H         1 UNK         0.0786 
    121 H121       29.9736  -48.2164  -50.4923 H         1 UNK         0.0786 
    122 H122       33.7040  -47.6085  -51.9715 H         1 UNK         0.3032 
    123 H123       35.3379  -49.8627  -51.6925 H         1 UNK         0.1094 
    124 H124       34.8964  -50.8346  -54.5644 H         1 UNK         0.0794 
    125 H125       36.4061  -50.9916  -53.6670 H         1 UNK         0.0794 
    126 H126       34.9635  -51.8276  -53.1179 H         1 UNK         0.0794 
    127 H127       36.2759  -48.0450  -52.5592 H         1 UNK         0.3016 
@<TRIPOS>BOND
     1    1    2 1    
     2    1   67 1    
     3    1   68 1    
     4    1   69 1    
     5    2    3 2    
     6    2    4 am   BACKBONE|DICT|INTERRES
     7    4    5 1    
     8    4   70 1    
     9    5    6 1    
    10    5   65 1    
    11    5   71 1    
    12    6    7 1    
    13    6   72 1    
    14    6   73 1    
    15    7    8 1    
    16    8    9 1    
    17    8   74 1    
    18    8   75 1    
    19    9   10 ar   
    20    9   14 ar   
    21   10   11 ar   
    22   10   76 1    
    23   11   12 ar   
    24   11   48 1    
    25   12   13 ar   
    26   12   77 1    
    27   13   14 ar   
    28   13   15 1    
    29   14   78 1    
    30   15   16 1    
    31   15   79 1    
    32   15   80 1    
    33   16   17 1    
    34   17   18 1    
    35   17   81 1    
    36   17   82 1    
    37   18   19 1    
    38   18   22 1    
    39   18   83 1    
    40   19   20 am   BACKBONE|DICT|INTERRES
    41   19   21 2    
    42   20   84 1    
    43   20   85 1    
    44   22   23 am   BACKBONE|DICT|INTERRES
    45   22   86 1    
    46   23   24 2    
    47   23   25 1    
    48   25   26 1    
    49   25   27 1    
    50   25   87 1    
    51   26   88 1    
    52   26   89 1    
    53   26   90 1    
    54   27   28 am   BACKBONE|DICT|INTERRES
    55   27   91 1    
    56   28   29 2    
    57   28   30 1    
    58   30   31 1    
    59   30   32 1    
    60   30   92 1    
    61   31   93 1    
    62   31   94 1    
    63   31   95 1    
    64   32   33 am   BACKBONE|DICT|INTERRES
    65   32   96 1    
    66   33   34 2    
    67   33   35 1    
    68   35   36 1    
    69   35   37 1    
    70   35   97 1    
    71   36   98 1    
    72   36   99 1    
    73   36  100 1    
    74   37   38 am   BACKBONE|DICT|INTERRES
    75   37  101 1    
    76   38   39 2    
    77   38   40 1    
    78   40   41 1    
    79   40   42 1    
    80   40  102 1    
    81   41  103 1    
    82   41  104 1    
    83   41  105 1    
    84   42   43 am   BACKBONE|DICT|INTERRES
    85   42  106 1    
    86   43   44 2    
    87   43   45 1    
    88   45   46 1    
    89   45   49 1    
    90   45  107 1    
    91   46   47 1    
    92   46  108 1    
    93   46  109 1    
    94   47   48 1    
    95   48  110 1    
    96   48  111 1    
    97   49   50 am   BACKBONE|DICT|INTERRES
    98   49  112 1    
    99   50   51 2    
   100   50   52 1    
   101   52   53 1    
   102   52   54 1    
   103   52  113 1    
   104   53  114 1    
   105   53  115 1    
   106   53  116 1    
   107   54   55 am   BACKBONE|DICT|INTERRES
   108   54  117 1    
   109   55   56 2    
   110   55   57 1    
   111   57   58 1    
   112   57   59 1    
   113   57  118 1    
   114   58  119 1    
   115   58  120 1    
   116   58  121 1    
   117   59   60 am   BACKBONE|DICT|INTERRES
   118   59  122 1    
   119   60   61 2    
   120   60   62 1    
   121   62   63 1    
   122   62   64 1    
   123   62  123 1    
   124   63  124 1    
   125   63  125 1    
   126   63  126 1    
   127   64   65 am   BACKBONE|DICT|INTERRES
   128   64  127 1    
   129   65   66 2    
@<TRIPOS>SUBSTRUCTURE
     1 UNK         1 GROUP             0       ****    0 ROOT    
