@<TRIPOS>MOLECULE
3R134
127   129    1
SMALL
USER_CHARGES


@<TRIPOS>ATOM
      1 CA         38.1379  -44.9352  -50.6651 C.3       0 UNK        -0.1968 
      2 C          37.4605  -45.8396  -51.6843 C.2       0 UNK         0.4852 
      3 O          38.0364  -46.8561  -52.0750 O.2       0 UNK        -0.5359 
      4 N          36.2473  -45.4722  -52.1194 N.am      1 UNK        -0.4300 
      5 CA         35.4319  -46.2165  -53.0885 C.3       1 UNK         0.0863 
      6 C6         34.2089  -45.3939  -53.5637 C.3       11 UNK        -0.0953 
      7 S7         34.6816  -43.8082  -54.3377 S.3       11 UNK        -0.2369 
      8 C8         33.6013  -43.7590  -55.8144 C.3       11 UNK         0.0226 
      9 C9         32.1008  -43.5745  -55.5582 C.ar      11 UNK        -0.0699 
     10 C10        31.5514  -43.4666  -54.2736 C.ar      11 UNK        -0.0804 
     11 C11        30.1713  -43.3654  -54.0896 C.ar      11 UNK        -0.0871 
     12 C12        29.3293  -43.3218  -55.2018 C.ar      11 UNK        -0.1008 
     13 C13        29.8579  -43.3976  -56.4928 C.ar      11 UNK        -0.0735 
     14 C14        31.2405  -43.5307  -56.6617 C.ar      11 UNK        -0.0945 
     15 C15        28.9303  -43.4014  -57.6987 C.3       11 UNK         0.0169 
     16 S16        27.8229  -41.9558  -57.7413 S.3       11 UNK        -0.2669 
     17 C17        26.7982  -42.3624  -59.1963 C.3       11 UNK        -0.0850 
     18 CA         25.4333  -43.0105  -58.8367 C.3       10 UNK         0.0855 
     19 C          24.5777  -43.1938  -60.1258 C.2       10 UNK         0.5543 
     20 N          24.3949  -44.4061  -60.6384 N.am      10 UNK        -0.7343 
     21 O          24.0741  -42.2140  -60.6692 O.2       10 UNK        -0.5027 
     22 N          25.6024  -44.2420  -58.0490 N.am      10 UNK        -0.4495 
     23 C          24.6250  -44.9031  -57.4165 C.2       10 UNK         0.4903 
     24 O          23.4829  -44.4606  -57.2839 O.2       10 UNK        -0.4860 
     25 CA         24.9750  -46.2944  -56.8401 C.3       9 UNK         0.0227 
     26 CB         23.7909  -47.2778  -56.9436 C.3       9 UNK        -0.1964 
     27 N          26.1918  -46.9138  -57.3922 N.am      9 UNK        -0.4231 
     28 C          26.4561  -47.1896  -58.6807 C.2       9 UNK         0.5014 
     29 O          25.7048  -46.8999  -59.6135 O.2       9 UNK        -0.5270 
     30 CA         27.7985  -47.8693  -58.9903 C.3       8 UNK         0.0284 
     31 CB         28.9388  -46.8402  -59.0335 C.3       8 UNK        -0.1977 
     32 N          28.1282  -48.9376  -58.0446 N.am      8 UNK        -0.4342 
     33 C          27.5604  -50.1524  -58.0733 C.2       8 UNK         0.5039 
     34 O          26.7037  -50.4892  -58.8922 O.2       8 UNK        -0.5547 
     35 CA         28.0324  -51.1748  -57.0267 C.3       7 UNK         0.0281 
     36 CB         29.4079  -51.7454  -57.4059 C.3       7 UNK        -0.1963 
     37 N          28.0756  -50.6260  -55.6710 N.am      7 UNK        -0.4444 
     38 C          26.9928  -50.2661  -54.9671 C.2       7 UNK         0.5104 
     39 O          25.8363  -50.3812  -55.3734 O.2       7 UNK        -0.5100 
     40 CA         27.2395  -49.6695  -53.5713 C.3       6 UNK         0.0396 
     41 CB         27.4054  -50.7832  -52.5252 C.3       6 UNK        -0.1801 
     42 N          28.3998  -48.7787  -53.5247 N.am      6 UNK        -0.4747 
     43 C          28.4953  -47.6142  -54.1833 C.2       6 UNK         0.5012 
     44 O          27.6188  -47.1649  -54.9224 O.2       6 UNK        -0.5003 
     45 CA         29.8292  -46.8578  -54.0344 C.3       5 UNK         0.0782 
     46 C46        29.9706  -46.1843  -52.6421 C.3       11 UNK        -0.0868 
     47 S47        28.7044  -44.9040  -52.3146 S.3       11 UNK        -0.2515 
     48 C48        29.5895  -43.3547  -52.6850 C.3       11 UNK         0.0199 
     49 N          30.9584  -47.7451  -54.3319 N.am      5 UNK        -0.4607 
     50 C          31.1700  -48.3223  -55.5271 C.2       4 UNK         0.5031 
     51 O          30.4758  -48.1116  -56.5203 O.2       4 UNK        -0.5119 
     52 CA         32.3026  -49.3575  -55.6316 C.3       4 UNK         0.0263 
     53 CB         33.5875  -48.7085  -56.1675 C.3       4 UNK        -0.1967 
     54 N          32.5607  -50.0548  -54.3683 N.am      4 UNK        -0.4237 
     55 C          31.6707  -50.8708  -53.7781 C.2       3 UNK         0.4908 
     56 O          30.5761  -51.1458  -54.2711 O.2       3 UNK        -0.5102 
     57 CA         32.0201  -51.4520  -52.3957 C.3       3 UNK         0.0241 
     58 CB         32.5298  -52.8948  -52.5371 C.3       3 UNK        -0.1971 
     59 N          32.9935  -50.6678  -51.6304 N.am      3 UNK        -0.4139 
     60 C          32.8400  -49.3918  -51.2501 C.2       2 UNK         0.5016 
     61 O          31.8428  -48.7168  -51.5138 O.2       2 UNK        -0.5319 
     62 CA         34.0149  -48.7287  -50.5029 C.3       2 UNK         0.0286 
     63 CB         35.1642  -49.6948  -50.1330 C.3       2 UNK        -0.1963 
     64 N          34.5437  -47.5805  -51.2496 N.am      2 UNK        -0.4790 
     65 C          34.9654  -47.5744  -52.5256 C.2       1 UNK         0.5024 
     66 O          34.9907  -48.5732  -53.2469 O.2       1 UNK        -0.4888 
     67 H67        37.5248  -44.0693  -50.4159 H         1 UNK         0.0892 
     68 H68        38.3343  -45.4871  -49.7463 H         1 UNK         0.0892 
     69 H69        39.0889  -44.5752  -51.0567 H         1 UNK         0.0892 
     70 H70        35.8439  -44.6081  -51.7864 H         1 UNK         0.3107 
     71 H71        36.0599  -46.4263  -53.9573 H         1 UNK         0.0773 
     72 H72        33.5498  -45.1796  -52.7209 H         1 UNK         0.0680 
     73 H73        33.6111  -45.9671  -54.2739 H         1 UNK         0.0680 
     74 H74        33.7552  -44.6742  -56.3880 H         1 UNK         0.0650 
     75 H75        33.9436  -42.9391  -56.4472 H         1 UNK         0.0650 
     76 H76        32.1833  -43.4844  -53.3997 H         1 UNK         0.1397 
     77 H77        28.2588  -43.2534  -55.0615 H         1 UNK         0.1363 
     78 H78        31.6514  -43.6148  -57.6587 H         1 UNK         0.1355 
     79 H79        29.5006  -43.4424  -58.6282 H         1 UNK         0.0707 
     80 H80        28.3280  -44.3067  -57.6564 H         1 UNK         0.0707 
     81 H81        26.6361  -41.4302  -59.7414 H         1 UNK         0.1034 
     82 H82        27.3625  -43.0049  -59.8753 H         1 UNK         0.1034 
     83 H83        24.8888  -42.3045  -58.2067 H         1 UNK         0.0482 
     84 H84        23.8382  -44.5100  -61.4715 H         1 UNK         0.3460 
     85 H85        24.8166  -45.2239  -60.2087 H         1 UNK         0.3460 
     86 H86        26.5033  -44.6869  -58.1100 H         1 UNK         0.2989 
     87 H87        25.1772  -46.1339  -55.7804 H         1 UNK         0.0559 
     88 H88        23.4968  -47.4462  -57.9801 H         1 UNK         0.0848 
     89 H89        22.9157  -46.9008  -56.4131 H         1 UNK         0.0848 
     90 H90        24.0409  -48.2442  -56.5049 H         1 UNK         0.0848 
     91 H91        26.8838  -47.1620  -56.6879 H         1 UNK         0.3144 
     92 H92        27.7171  -48.3080  -59.9874 H         1 UNK         0.0727 
     93 H93        29.1367  -46.4166  -58.0493 H         1 UNK         0.0790 
     94 H94        28.7041  -46.0179  -59.7108 H         1 UNK         0.0790 
     95 H95        29.8647  -47.2953  -59.3857 H         1 UNK         0.0790 
     96 H96        28.8580  -48.7383  -57.3636 H         1 UNK         0.3215 
     97 H97        27.3172  -52.0004  -57.0241 H         1 UNK         0.0863 
     98 H98        29.7454  -52.4882  -56.6826 H         1 UNK         0.0808 
     99 H99        30.1654  -50.9649  -57.4653 H         1 UNK         0.0808 
    100 H100       29.3698  -52.2344  -58.3802 H         1 UNK         0.0808 
    101 H101       28.9860  -50.5723  -55.2211 H         1 UNK         0.3118 
    102 H102       26.3598  -49.0803  -53.3034 H         1 UNK         0.0546 
    103 H103       26.5389  -51.4459  -52.5221 H         1 UNK         0.0828 
    104 H104       27.5013  -50.3733  -51.5197 H         1 UNK         0.0828 
    105 H105       28.2841  -51.3983  -52.7228 H         1 UNK         0.0828 
    106 H106       29.1914  -49.0880  -52.9784 H         1 UNK         0.3005 
    107 H107       29.8370  -46.0761  -54.7962 H         1 UNK         0.1257 
    108 H108       30.9606  -45.7385  -52.5396 H         1 UNK         0.0775 
    109 H109       29.9034  -46.9291  -51.8476 H         1 UNK         0.0775 
    110 H110       28.8988  -42.5162  -52.5845 H         1 UNK         0.0840 
    111 H111       30.3692  -43.2009  -51.9373 H         1 UNK         0.0840 
    112 H112       31.5285  -48.0241  -53.5421 H         1 UNK         0.2987 
    113 H113       31.9924  -50.1108  -56.3569 H         1 UNK         0.0785 
    114 H114       33.4239  -48.2960  -57.1640 H         1 UNK         0.0798 
    115 H115       34.3982  -49.4330  -56.2455 H         1 UNK         0.0798 
    116 H116       33.9274  -47.8907  -55.5352 H         1 UNK         0.0798 
    117 H117       33.4319  -49.8389  -53.8951 H         1 UNK         0.3079 
    118 H118       31.0941  -51.4723  -51.8172 H         1 UNK         0.0794 
    119 H119       33.4735  -52.9381  -53.0826 H         1 UNK         0.0786 
    120 H120       31.8113  -53.5114  -53.0796 H         1 UNK         0.0786 
    121 H121       32.6815  -53.3607  -51.5631 H         1 UNK         0.0786 
    122 H122       33.8612  -51.1286  -51.3973 H         1 UNK         0.3032 
    123 H123       33.5958  -48.3382  -49.5739 H         1 UNK         0.1094 
    124 H124       35.9291  -49.1803  -49.5510 H         1 UNK         0.0794 
    125 H125       34.8064  -50.5229  -49.5194 H         1 UNK         0.0794 
    126 H126       35.6549  -50.1133  -51.0127 H         1 UNK         0.0794 
    127 H127       34.5449  -46.7010  -50.7524 H         1 UNK         0.3016 
@<TRIPOS>BOND
     1    1    2 1    
     2    1   67 1    
     3    1   68 1    
     4    1   69 1    
     5    2    3 2    
     6    2    4 am   BACKBONE|DICT|INTERRES
     7    4    5 1    
     8    4   70 1    
     9    5    6 1    
    10    5   65 1    
    11    5   71 1    
    12    6    7 1    
    13    6   72 1    
    14    6   73 1    
    15    7    8 1    
    16    8    9 1    
    17    8   74 1    
    18    8   75 1    
    19    9   10 ar   
    20    9   14 ar   
    21   10   11 ar   
    22   10   76 1    
    23   11   12 ar   
    24   11   48 1    
    25   12   13 ar   
    26   12   77 1    
    27   13   14 ar   
    28   13   15 1    
    29   14   78 1    
    30   15   16 1    
    31   15   79 1    
    32   15   80 1    
    33   16   17 1    
    34   17   18 1    
    35   17   81 1    
    36   17   82 1    
    37   18   19 1    
    38   18   22 1    
    39   18   83 1    
    40   19   20 am   BACKBONE|DICT|INTERRES
    41   19   21 2    
    42   20   84 1    
    43   20   85 1    
    44   22   23 am   BACKBONE|DICT|INTERRES
    45   22   86 1    
    46   23   24 2    
    47   23   25 1    
    48   25   26 1    
    49   25   27 1    
    50   25   87 1    
    51   26   88 1    
    52   26   89 1    
    53   26   90 1    
    54   27   28 am   BACKBONE|DICT|INTERRES
    55   27   91 1    
    56   28   29 2    
    57   28   30 1    
    58   30   31 1    
    59   30   32 1    
    60   30   92 1    
    61   31   93 1    
    62   31   94 1    
    63   31   95 1    
    64   32   33 am   BACKBONE|DICT|INTERRES
    65   32   96 1    
    66   33   34 2    
    67   33   35 1    
    68   35   36 1    
    69   35   37 1    
    70   35   97 1    
    71   36   98 1    
    72   36   99 1    
    73   36  100 1    
    74   37   38 am   BACKBONE|DICT|INTERRES
    75   37  101 1    
    76   38   39 2    
    77   38   40 1    
    78   40   41 1    
    79   40   42 1    
    80   40  102 1    
    81   41  103 1    
    82   41  104 1    
    83   41  105 1    
    84   42   43 am   BACKBONE|DICT|INTERRES
    85   42  106 1    
    86   43   44 2    
    87   43   45 1    
    88   45   46 1    
    89   45   49 1    
    90   45  107 1    
    91   46   47 1    
    92   46  108 1    
    93   46  109 1    
    94   47   48 1    
    95   48  110 1    
    96   48  111 1    
    97   49   50 am   BACKBONE|DICT|INTERRES
    98   49  112 1    
    99   50   51 2    
   100   50   52 1    
   101   52   53 1    
   102   52   54 1    
   103   52  113 1    
   104   53  114 1    
   105   53  115 1    
   106   53  116 1    
   107   54   55 am   BACKBONE|DICT|INTERRES
   108   54  117 1    
   109   55   56 2    
   110   55   57 1    
   111   57   58 1    
   112   57   59 1    
   113   57  118 1    
   114   58  119 1    
   115   58  120 1    
   116   58  121 1    
   117   59   60 am   BACKBONE|DICT|INTERRES
   118   59  122 1    
   119   60   61 2    
   120   60   62 1    
   121   62   63 1    
   122   62   64 1    
   123   62  123 1    
   124   63  124 1    
   125   63  125 1    
   126   63  126 1    
   127   64   65 am   BACKBONE|DICT|INTERRES
   128   64  127 1    
   129   65   66 2    
@<TRIPOS>SUBSTRUCTURE
     1 UNK         1 GROUP             0       ****    0 ROOT    
