@<TRIPOS>MOLECULE
3R134
127   129    1
SMALL
USER_CHARGES


@<TRIPOS>ATOM
      1 CA         29.4524  -46.2601  -52.4182 C.3       0 UNK        -0.1968 
      2 C          30.6469  -45.6472  -51.7039 C.2       0 UNK         0.4852 
      3 O          30.8072  -45.8535  -50.5003 O.2       0 UNK        -0.5359 
      4 N          31.4972  -44.9117  -52.4368 N.am      1 UNK        -0.4300 
      5 CA         32.7647  -44.3501  -51.9422 C.3       1 UNK         0.0863 
      6 C6         33.3897  -43.3425  -52.9396 C.3       11 UNK        -0.0953 
      7 S7         32.2503  -42.0035  -53.4388 S.3       11 UNK        -0.2369 
      8 C8         32.8788  -41.5479  -55.0903 C.3       11 UNK         0.0226 
      9 C9         32.3482  -42.4670  -56.1831 C.ar      11 UNK        -0.0699 
     10 C10        33.0205  -43.6521  -56.4894 C.ar      11 UNK        -0.0804 
     11 C11        32.5097  -44.5365  -57.4417 C.ar      11 UNK        -0.0871 
     12 C12        31.3581  -44.1907  -58.1526 C.ar      11 UNK        -0.1008 
     13 C13        30.7021  -42.9841  -57.8951 C.ar      11 UNK        -0.0735 
     14 C14        31.1909  -42.1333  -56.8961 C.ar      11 UNK        -0.0945 
     15 C15        29.4759  -42.6041  -58.7135 C.3       11 UNK         0.0169 
     16 S16        27.9974  -43.5424  -58.2150 S.3       11 UNK        -0.2669 
     17 C17        27.6566  -42.8171  -56.5765 C.3       11 UNK        -0.0850 
     18 CA         27.9828  -43.7938  -55.4094 C.3       10 UNK         0.0855 
     19 C          28.0042  -43.0565  -54.0329 C.2       10 UNK         0.5543 
     20 N          27.4667  -43.6224  -52.9598 N.am      10 UNK        -0.7343 
     21 O          28.5448  -41.9593  -53.9267 O.2       10 UNK        -0.5027 
     22 N          27.1755  -45.0314  -55.4595 N.am      10 UNK        -0.4495 
     23 C          25.8453  -45.1079  -55.3178 C.2       10 UNK         0.4903 
     24 O          25.1189  -44.1371  -55.0961 O.2       10 UNK        -0.4860 
     25 CA         25.2307  -46.5158  -55.4285 C.3       9 UNK         0.0227 
     26 CB         23.7566  -46.5589  -54.9754 C.3       9 UNK        -0.1964 
     27 N          25.3598  -47.1105  -56.7636 N.am      9 UNK        -0.4231 
     28 C          24.9854  -46.5962  -57.9473 C.2       9 UNK         0.5014 
     29 O          24.4916  -45.4764  -58.0854 O.2       9 UNK        -0.5270 
     30 CA         25.1060  -47.4996  -59.1952 C.3       8 UNK         0.0284 
     31 CB         25.8630  -46.8010  -60.3458 C.3       8 UNK        -0.1977 
     32 N          25.6241  -48.8507  -58.9223 N.am      8 UNK        -0.4342 
     33 C          26.8832  -49.2086  -58.6362 C.2       8 UNK         0.5039 
     34 O          27.8529  -48.4501  -58.6671 O.2       8 UNK        -0.5547 
     35 CA         27.0837  -50.6570  -58.1592 C.3       7 UNK         0.0281 
     36 CB         28.0347  -51.4248  -59.0919 C.3       7 UNK        -0.1963 
     37 N          27.6348  -50.6432  -56.8047 N.am      7 UNK        -0.4444 
     38 C          26.9752  -50.2021  -55.7218 C.2       7 UNK         0.5104 
     39 O          25.7718  -49.9439  -55.7173 O.2       7 UNK        -0.5100 
     40 CA         27.8089  -49.9337  -54.4547 C.3       6 UNK         0.0396 
     41 CB         27.8294  -51.1693  -53.5434 C.3       6 UNK        -0.1801 
     42 N          29.1818  -49.5423  -54.7780 N.am      6 UNK        -0.4747 
     43 C          29.5246  -48.4178  -55.4278 C.2       6 UNK         0.5012 
     44 O          28.7402  -47.4862  -55.6203 O.2       6 UNK        -0.5003 
     45 CA         30.9691  -48.3202  -55.9634 C.3       5 UNK         0.0782 
     46 C46        31.6291  -46.9827  -55.5564 C.3       11 UNK        -0.0868 
     47 S47        33.3593  -46.8363  -56.1288 S.3       11 UNK        -0.2515 
     48 C48        33.1817  -45.8821  -57.6739 C.3       11 UNK         0.0199 
     49 N          31.7843  -49.4747  -55.5699 N.am      5 UNK        -0.4607 
     50 C          31.8467  -50.6402  -56.2252 C.2       4 UNK         0.5031 
     51 O          31.1595  -50.8994  -57.2125 O.2       4 UNK        -0.5119 
     52 CA         32.8243  -51.7014  -55.6855 C.3       4 UNK         0.0263 
     53 CB         34.1252  -51.6878  -56.5042 C.3       4 UNK        -0.1967 
     54 N          33.1503  -51.5276  -54.2664 N.am      4 UNK        -0.4237 
     55 C          32.2955  -51.7499  -53.2580 C.2       3 UNK         0.4908 
     56 O          31.1523  -52.1793  -53.4152 O.2       3 UNK        -0.5102 
     57 CA         32.7822  -51.3953  -51.8395 C.3       3 UNK         0.0241 
     58 CB         33.4861  -52.6011  -51.1963 C.3       3 UNK        -0.1971 
     59 N          33.6609  -50.2174  -51.7665 N.am      3 UNK        -0.4139 
     60 C          33.3297  -48.9914  -52.1943 C.2       2 UNK         0.5016 
     61 O          32.2683  -48.7367  -52.7714 O.2       2 UNK        -0.5319 
     62 CA         34.3534  -47.8676  -51.9734 C.3       2 UNK         0.0286 
     63 CB         35.5565  -48.0108  -52.9214 C.3       2 UNK        -0.1963 
     64 N          33.6690  -46.6104  -52.2479 N.am      2 UNK        -0.4790 
     65 C          33.7930  -45.4530  -51.5897 C.2       1 UNK         0.5024 
     66 O          34.6515  -45.2413  -50.7324 O.2       1 UNK        -0.4888 
     67 H67        29.3414  -45.8744  -53.4304 H         1 UNK         0.0892 
     68 H68        29.5714  -47.3420  -52.4774 H         1 UNK         0.0892 
     69 H69        28.5356  -46.0501  -51.8689 H         1 UNK         0.0892 
     70 H70        31.2924  -44.7165  -53.4058 H         1 UNK         0.3107 
     71 H71        32.5431  -43.8134  -51.0173 H         1 UNK         0.0773 
     72 H72        34.2735  -42.8757  -52.5006 H         1 UNK         0.0680 
     73 H73        33.7384  -43.8725  -53.8231 H         1 UNK         0.0680 
     74 H74        33.9699  -41.5531  -55.0834 H         1 UNK         0.0650 
     75 H75        32.5830  -40.5192  -55.3008 H         1 UNK         0.0650 
     76 H76        33.9292  -43.9118  -55.9667 H         1 UNK         0.1397 
     77 H77        30.9617  -44.8622  -58.9023 H         1 UNK         0.1363 
     78 H78        30.6755  -41.2084  -56.6761 H         1 UNK         0.1355 
     79 H79        29.2745  -41.5341  -58.6411 H         1 UNK         0.0707 
     80 H80        29.6745  -42.8020  -59.7679 H         1 UNK         0.0707 
     81 H81        28.2265  -41.8918  -56.4814 H         1 UNK         0.1034 
     82 H82        26.6095  -42.5137  -56.5439 H         1 UNK         0.1034 
     83 H83        29.0123  -44.1269  -55.5469 H         1 UNK         0.0482 
     84 H84        26.9800  -44.4995  -53.0375 H         1 UNK         0.3460 
     85 H85        27.4919  -43.1306  -52.0810 H         1 UNK         0.3460 
     86 H86        27.6967  -45.8896  -55.6266 H         1 UNK         0.2989 
     87 H87        25.7990  -47.1561  -54.7521 H         1 UNK         0.0559 
     88 H88        23.6479  -46.1766  -53.9597 H         1 UNK         0.0848 
     89 H89        23.1167  -45.9558  -55.6207 H         1 UNK         0.0848 
     90 H90        23.3715  -47.5787  -54.9799 H         1 UNK         0.0848 
     91 H91        25.7394  -48.0490  -56.7676 H         1 UNK         0.3144 
     92 H92        24.0820  -47.6544  -59.5389 H         1 UNK         0.0727 
     93 H93        25.9541  -47.4495  -61.2170 H         1 UNK         0.0790 
     94 H94        26.8650  -46.4922  -60.0462 H         1 UNK         0.0790 
     95 H95        25.3368  -45.9007  -60.6652 H         1 UNK         0.0790 
     96 H96        24.9102  -49.5636  -58.8457 H         1 UNK         0.3215 
     97 H97        26.1237  -51.1777  -58.1386 H         1 UNK         0.0863 
     98 H98        27.6401  -51.4585  -60.1082 H         1 UNK         0.0808 
     99 H99        29.0193  -50.9570  -59.1396 H         1 UNK         0.0808 
    100 H100       28.1700  -52.4547  -58.7612 H         1 UNK         0.0808 
    101 H101       28.6339  -50.7776  -56.7297 H         1 UNK         0.3118 
    102 H102       27.3403  -49.1110  -53.9108 H         1 UNK         0.0546 
    103 H103       26.8173  -51.4642  -53.2633 H         1 UNK         0.0828 
    104 H104       28.3771  -50.9728  -52.6214 H         1 UNK         0.0828 
    105 H105       28.2965  -52.0254  -54.0320 H         1 UNK         0.0828 
    106 H106       29.9036  -50.2298  -54.6068 H         1 UNK         0.3005 
    107 H107       30.8784  -48.3193  -57.0524 H         1 UNK         0.1257 
    108 H108       31.6345  -46.8835  -54.4728 H         1 UNK         0.0775 
    109 H109       31.0425  -46.1405  -55.9257 H         1 UNK         0.0775 
    110 H110       34.1691  -45.7186  -58.1073 H         1 UNK         0.0840 
    111 H111       32.6215  -46.4809  -58.3938 H         1 UNK         0.0840 
    112 H112       32.3111  -49.3548  -54.7122 H         1 UNK         0.2987 
    113 H113       32.3499  -52.6773  -55.8102 H         1 UNK         0.0785 
    114 H114       33.9205  -51.8468  -57.5640 H         1 UNK         0.0798 
    115 H115       34.8043  -52.4788  -56.1854 H         1 UNK         0.0798 
    116 H116       34.6495  -50.7354  -56.4136 H         1 UNK         0.0798 
    117 H117       34.0707  -51.1757  -54.0470 H         1 UNK         0.3079 
    118 H118       31.8929  -51.1673  -51.2478 H         1 UNK         0.0794 
    119 H119       32.8459  -53.4844  -51.2183 H         1 UNK         0.0786 
    120 H120       33.7303  -52.4082  -50.1514 H         1 UNK         0.0786 
    121 H121       34.4102  -52.8555  -51.7169 H         1 UNK         0.0786 
    122 H122       34.5544  -50.3495  -51.3139 H         1 UNK         0.3032 
    123 H123       34.6844  -47.8945  -50.9326 H         1 UNK         0.1094 
    124 H124       36.2539  -47.1818  -52.8005 H         1 UNK         0.0794 
    125 H125       36.1103  -48.9290  -52.7231 H         1 UNK         0.0794 
    126 H126       35.2461  -48.0339  -53.9668 H         1 UNK         0.0794 
    127 H127       32.8823  -46.7216  -52.8744 H         1 UNK         0.3016 
@<TRIPOS>BOND
     1    1    2 1    
     2    1   67 1    
     3    1   68 1    
     4    1   69 1    
     5    2    3 2    
     6    2    4 am   BACKBONE|DICT|INTERRES
     7    4    5 1    
     8    4   70 1    
     9    5    6 1    
    10    5   65 1    
    11    5   71 1    
    12    6    7 1    
    13    6   72 1    
    14    6   73 1    
    15    7    8 1    
    16    8    9 1    
    17    8   74 1    
    18    8   75 1    
    19    9   10 ar   
    20    9   14 ar   
    21   10   11 ar   
    22   10   76 1    
    23   11   12 ar   
    24   11   48 1    
    25   12   13 ar   
    26   12   77 1    
    27   13   14 ar   
    28   13   15 1    
    29   14   78 1    
    30   15   16 1    
    31   15   79 1    
    32   15   80 1    
    33   16   17 1    
    34   17   18 1    
    35   17   81 1    
    36   17   82 1    
    37   18   19 1    
    38   18   22 1    
    39   18   83 1    
    40   19   20 am   BACKBONE|DICT|INTERRES
    41   19   21 2    
    42   20   84 1    
    43   20   85 1    
    44   22   23 am   BACKBONE|DICT|INTERRES
    45   22   86 1    
    46   23   24 2    
    47   23   25 1    
    48   25   26 1    
    49   25   27 1    
    50   25   87 1    
    51   26   88 1    
    52   26   89 1    
    53   26   90 1    
    54   27   28 am   BACKBONE|DICT|INTERRES
    55   27   91 1    
    56   28   29 2    
    57   28   30 1    
    58   30   31 1    
    59   30   32 1    
    60   30   92 1    
    61   31   93 1    
    62   31   94 1    
    63   31   95 1    
    64   32   33 am   BACKBONE|DICT|INTERRES
    65   32   96 1    
    66   33   34 2    
    67   33   35 1    
    68   35   36 1    
    69   35   37 1    
    70   35   97 1    
    71   36   98 1    
    72   36   99 1    
    73   36  100 1    
    74   37   38 am   BACKBONE|DICT|INTERRES
    75   37  101 1    
    76   38   39 2    
    77   38   40 1    
    78   40   41 1    
    79   40   42 1    
    80   40  102 1    
    81   41  103 1    
    82   41  104 1    
    83   41  105 1    
    84   42   43 am   BACKBONE|DICT|INTERRES
    85   42  106 1    
    86   43   44 2    
    87   43   45 1    
    88   45   46 1    
    89   45   49 1    
    90   45  107 1    
    91   46   47 1    
    92   46  108 1    
    93   46  109 1    
    94   47   48 1    
    95   48  110 1    
    96   48  111 1    
    97   49   50 am   BACKBONE|DICT|INTERRES
    98   49  112 1    
    99   50   51 2    
   100   50   52 1    
   101   52   53 1    
   102   52   54 1    
   103   52  113 1    
   104   53  114 1    
   105   53  115 1    
   106   53  116 1    
   107   54   55 am   BACKBONE|DICT|INTERRES
   108   54  117 1    
   109   55   56 2    
   110   55   57 1    
   111   57   58 1    
   112   57   59 1    
   113   57  118 1    
   114   58  119 1    
   115   58  120 1    
   116   58  121 1    
   117   59   60 am   BACKBONE|DICT|INTERRES
   118   59  122 1    
   119   60   61 2    
   120   60   62 1    
   121   62   63 1    
   122   62   64 1    
   123   62  123 1    
   124   63  124 1    
   125   63  125 1    
   126   63  126 1    
   127   64   65 am   BACKBONE|DICT|INTERRES
   128   64  127 1    
   129   65   66 2    
@<TRIPOS>SUBSTRUCTURE
     1 UNK         1 GROUP             0       ****    0 ROOT    
