@<TRIPOS>MOLECULE
3R134
127   129    1
SMALL
USER_CHARGES


@<TRIPOS>ATOM
      1 CA         37.2024  -45.4674  -53.0441 C.3       0 UNK        -0.1968 
      2 C          35.7792  -45.9454  -52.8023 C.2       0 UNK         0.4852 
      3 O          35.3248  -46.8730  -53.4683 O.2       0 UNK        -0.5359 
      4 N          35.0747  -45.3376  -51.8379 N.am      1 UNK        -0.4300 
      5 CA         33.6683  -45.6145  -51.5024 C.3       1 UNK         0.0863 
      6 C6         33.0891  -44.5055  -50.5816 C.3       11 UNK        -0.0953 
      7 S7         31.4595  -43.9104  -51.1391 S.3       11 UNK        -0.2369 
      8 C8         31.9348  -42.6674  -52.3838 C.3       11 UNK         0.0226 
      9 C9         31.5856  -43.1241  -53.7927 C.ar      11 UNK        -0.0699 
     10 C10        32.5098  -43.8293  -54.5695 C.ar      11 UNK        -0.0804 
     11 C11        32.1898  -44.2249  -55.8729 C.ar      11 UNK        -0.0871 
     12 C12        30.9307  -43.9115  -56.3973 C.ar      11 UNK        -0.1008 
     13 C13        30.0000  -43.1990  -55.6326 C.ar      11 UNK        -0.0735 
     14 C14        30.3374  -42.8081  -54.3331 C.ar      11 UNK        -0.0945 
     15 C15        28.6528  -42.8022  -56.2237 C.3       11 UNK         0.0169 
     16 S16        27.2545  -43.3054  -55.1688 S.3       11 UNK        -0.2669 
     17 C17        25.8514  -42.5094  -56.0218 C.3       11 UNK        -0.0850 
     18 CA         24.9180  -43.5368  -56.7091 C.3       10 UNK         0.0855 
     19 C          23.6544  -42.8311  -57.2733 C.2       10 UNK         0.5543 
     20 N          22.5911  -42.7412  -56.4866 N.am      10 UNK        -0.7343 
     21 O          23.6476  -42.3266  -58.3949 O.2       10 UNK        -0.5027 
     22 N          25.6377  -44.3085  -57.7312 N.am      10 UNK        -0.4495 
     23 C          25.1683  -45.3968  -58.3498 C.2       10 UNK         0.4903 
     24 O          24.0774  -45.9097  -58.0958 O.2       10 UNK        -0.4860 
     25 CA         26.0583  -46.0271  -59.4338 C.3       9 UNK         0.0227 
     26 CB         27.3131  -45.2019  -59.7936 C.3       9 UNK        -0.1964 
     27 N          26.4631  -47.3587  -58.9870 N.am      9 UNK        -0.4231 
     28 C          25.8982  -48.5034  -59.3950 C.2       9 UNK         0.5014 
     29 O          25.0188  -48.5703  -60.2559 O.2       9 UNK        -0.5270 
     30 CA         26.4023  -49.8063  -58.7533 C.3       8 UNK         0.0284 
     31 CB         27.6409  -50.3302  -59.4985 C.3       8 UNK        -0.1977 
     32 N          26.7066  -49.6879  -57.3261 N.am      8 UNK        -0.4342 
     33 C          25.7954  -49.5270  -56.3557 C.2       8 UNK         0.5039 
     34 O          24.5869  -49.4121  -56.5617 O.2       8 UNK        -0.5547 
     35 CA         26.3118  -49.5186  -54.9087 C.3       7 UNK         0.0281 
     36 CB         26.5639  -50.9540  -54.4167 C.3       7 UNK        -0.1963 
     37 N          27.5452  -48.7416  -54.7895 N.am      7 UNK        -0.4444 
     38 C          27.6099  -47.4722  -54.3646 C.2       7 UNK         0.5104 
     39 O          26.6397  -46.8444  -53.9398 O.2       7 UNK        -0.5100 
     40 CA         28.9859  -46.7792  -54.4186 C.3       6 UNK         0.0396 
     41 CB         29.6434  -46.7526  -53.0316 C.3       6 UNK        -0.1801 
     42 N          29.9171  -47.3830  -55.3722 N.am      6 UNK        -0.4747 
     43 C          29.7604  -47.3725  -56.7033 C.2       6 UNK         0.5012 
     44 O          28.7946  -46.8698  -57.2776 O.2       6 UNK        -0.5003 
     45 CA         30.8228  -48.1209  -57.5333 C.3       5 UNK         0.0782 
     46 C46        31.9866  -47.1871  -57.9494 C.3       11 UNK        -0.0868 
     47 S47        33.1261  -46.7511  -56.5859 S.3       11 UNK        -0.2515 
     48 C48        33.2316  -44.9386  -56.7247 C.3       11 UNK         0.0199 
     49 N          31.2976  -49.3588  -56.8991 N.am      5 UNK        -0.4607 
     50 C          30.5220  -50.3672  -56.4762 C.2       4 UNK         0.5031 
     51 O          29.2978  -50.3744  -56.5990 O.2       4 UNK        -0.5119 
     52 CA         31.1958  -51.5605  -55.7766 C.3       4 UNK         0.0263 
     53 CB         31.2450  -52.7690  -56.7250 C.3       4 UNK        -0.1967 
     54 N          32.5417  -51.3036  -55.2521 N.am      4 UNK        -0.4237 
     55 C          32.8531  -50.4035  -54.3091 C.2       3 UNK         0.4908 
     56 O          32.0417  -49.6136  -53.8196 O.2       3 UNK        -0.5102 
     57 CA         34.3305  -50.3794  -53.8814 C.3       3 UNK         0.0241 
     58 CB         35.2100  -49.7652  -54.9838 C.3       3 UNK        -0.1971 
     59 N          34.5225  -49.6307  -52.6383 N.am      3 UNK        -0.4139 
     60 C          34.2500  -50.1134  -51.4155 C.2       2 UNK         0.5016 
     61 O          33.8791  -51.2706  -51.2097 O.2       2 UNK        -0.5319 
     62 CA         34.4374  -49.1730  -50.2073 C.3       2 UNK         0.0286 
     63 CB         35.7270  -49.5241  -49.4468 C.3       2 UNK        -0.1963 
     64 N          34.4760  -47.7569  -50.5755 N.am      2 UNK        -0.4790 
     65 C          33.4084  -47.0339  -50.9430 C.2       1 UNK         0.5024 
     66 O          32.2539  -47.4535  -50.8666 O.2       1 UNK        -0.4888 
     67 H67        37.4786  -44.6508  -52.3774 H         1 UNK         0.0892 
     68 H68        37.9042  -46.2863  -52.8884 H         1 UNK         0.0892 
     69 H69        37.3087  -45.1184  -54.0708 H         1 UNK         0.0892 
     70 H70        35.5131  -44.6011  -51.3030 H         1 UNK         0.3107 
     71 H71        33.1327  -45.5967  -52.4529 H         1 UNK         0.0773 
     72 H72        32.9931  -44.8469  -49.5487 H         1 UNK         0.0680 
     73 H73        33.7559  -43.6439  -50.5240 H         1 UNK         0.0680 
     74 H74        32.9990  -42.4374  -52.3205 H         1 UNK         0.0650 
     75 H75        31.4150  -41.7352  -52.1577 H         1 UNK         0.0650 
     76 H76        33.4865  -44.0575  -54.1665 H         1 UNK         0.1397 
     77 H77        30.6828  -44.2058  -57.4077 H         1 UNK         0.1363 
     78 H78        29.6247  -42.2502  -53.7410 H         1 UNK         0.1355 
     79 H79        28.5235  -43.2393  -57.2144 H         1 UNK         0.0707 
     80 H80        28.6380  -41.7191  -56.3524 H         1 UNK         0.0707 
     81 H81        25.2988  -41.9410  -55.2709 H         1 UNK         0.1034 
     82 H82        26.2149  -41.7743  -56.7425 H         1 UNK         0.1034 
     83 H83        24.5886  -44.2496  -55.9498 H         1 UNK         0.0482 
     84 H84        22.5908  -43.1435  -55.5619 H         1 UNK         0.3460 
     85 H85        21.7665  -42.2723  -56.8281 H         1 UNK         0.3460 
     86 H86        26.5392  -43.9508  -58.0032 H         1 UNK         0.2989 
     87 H87        25.4495  -46.0966  -60.3374 H         1 UNK         0.0559 
     88 H88        27.9832  -45.0656  -58.9452 H         1 UNK         0.0848 
     89 H89        27.0409  -44.2139  -60.1676 H         1 UNK         0.0848 
     90 H90        27.8848  -45.6911  -60.5824 H         1 UNK         0.0848 
     91 H91        27.1769  -47.3854  -58.2636 H         1 UNK         0.3144 
     92 H92        25.6095  -50.5500  -58.8585 H         1 UNK         0.0727 
     93 H93        27.9676  -51.2910  -59.0999 H         1 UNK         0.0790 
     94 H94        28.4782  -49.6363  -59.4269 H         1 UNK         0.0790 
     95 H95        27.4265  -50.4748  -60.5583 H         1 UNK         0.0790 
     96 H96        27.6773  -49.8477  -57.0585 H         1 UNK         0.3215 
     97 H97        25.5322  -49.0828  -54.2798 H         1 UNK         0.0863 
     98 H98        26.8798  -50.9639  -53.3734 H         1 UNK         0.0808 
     99 H99        27.3323  -51.4590  -55.0033 H         1 UNK         0.0808 
    100 H100       25.6552  -51.5536  -54.4854 H         1 UNK         0.0808 
    101 H101       28.3882  -49.1682  -55.1548 H         1 UNK         0.3118 
    102 H102       28.8195  -45.7482  -54.7317 H         1 UNK         0.0546 
    103 H103       28.9938  -46.2734  -52.2982 H         1 UNK         0.0828 
    104 H104       30.5766  -46.1893  -53.0506 H         1 UNK         0.0828 
    105 H105       29.8674  -47.7568  -52.6689 H         1 UNK         0.0828 
    106 H106       30.7332  -47.8438  -54.9881 H         1 UNK         0.3005 
    107 H107       30.3173  -48.4275  -58.4509 H         1 UNK         0.1257 
    108 H108       31.5958  -46.2826  -58.4187 H         1 UNK         0.0775 
    109 H109       32.5803  -47.6770  -58.7226 H         1 UNK         0.0775 
    110 H110       34.2303  -44.6332  -56.4087 H         1 UNK         0.0840 
    111 H111       33.1488  -44.6323  -57.7685 H         1 UNK         0.0840 
    112 H112       32.2909  -49.4137  -56.7297 H         1 UNK         0.2987 
    113 H113       30.5624  -51.8216  -54.9262 H         1 UNK         0.0785 
    114 H114       30.2514  -53.0058  -57.1091 H         1 UNK         0.0798 
    115 H115       31.6118  -53.6604  -56.2158 H         1 UNK         0.0798 
    116 H116       31.8896  -52.5815  -57.5847 H         1 UNK         0.0798 
    117 H117       33.2773  -51.8965  -55.6096 H         1 UNK         0.3079 
    118 H118       34.6553  -51.4093  -53.7175 H         1 UNK         0.0794 
    119 H119       34.8853  -48.7577  -55.2429 H         1 UNK         0.0786 
    120 H120       35.1785  -50.3605  -55.8968 H         1 UNK         0.0786 
    121 H121       36.2534  -49.7075  -54.6732 H         1 UNK         0.0786 
    122 H122       34.7738  -48.6519  -52.7431 H         1 UNK         0.3032 
    123 H123       33.5888  -49.3347  -49.5383 H         1 UNK         0.1094 
    124 H124       36.6135  -49.3806  -50.0660 H         1 UNK         0.0794 
    125 H125       35.8388  -48.9132  -48.5507 H         1 UNK         0.0794 
    126 H126       35.7193  -50.5669  -49.1262 H         1 UNK         0.0794 
    127 H127       35.3880  -47.3327  -50.6641 H         1 UNK         0.3016 
@<TRIPOS>BOND
     1    1    2 1    
     2    1   67 1    
     3    1   68 1    
     4    1   69 1    
     5    2    3 2    
     6    2    4 am   BACKBONE|DICT|INTERRES
     7    4    5 1    
     8    4   70 1    
     9    5    6 1    
    10    5   65 1    
    11    5   71 1    
    12    6    7 1    
    13    6   72 1    
    14    6   73 1    
    15    7    8 1    
    16    8    9 1    
    17    8   74 1    
    18    8   75 1    
    19    9   10 ar   
    20    9   14 ar   
    21   10   11 ar   
    22   10   76 1    
    23   11   12 ar   
    24   11   48 1    
    25   12   13 ar   
    26   12   77 1    
    27   13   14 ar   
    28   13   15 1    
    29   14   78 1    
    30   15   16 1    
    31   15   79 1    
    32   15   80 1    
    33   16   17 1    
    34   17   18 1    
    35   17   81 1    
    36   17   82 1    
    37   18   19 1    
    38   18   22 1    
    39   18   83 1    
    40   19   20 am   BACKBONE|DICT|INTERRES
    41   19   21 2    
    42   20   84 1    
    43   20   85 1    
    44   22   23 am   BACKBONE|DICT|INTERRES
    45   22   86 1    
    46   23   24 2    
    47   23   25 1    
    48   25   26 1    
    49   25   27 1    
    50   25   87 1    
    51   26   88 1    
    52   26   89 1    
    53   26   90 1    
    54   27   28 am   BACKBONE|DICT|INTERRES
    55   27   91 1    
    56   28   29 2    
    57   28   30 1    
    58   30   31 1    
    59   30   32 1    
    60   30   92 1    
    61   31   93 1    
    62   31   94 1    
    63   31   95 1    
    64   32   33 am   BACKBONE|DICT|INTERRES
    65   32   96 1    
    66   33   34 2    
    67   33   35 1    
    68   35   36 1    
    69   35   37 1    
    70   35   97 1    
    71   36   98 1    
    72   36   99 1    
    73   36  100 1    
    74   37   38 am   BACKBONE|DICT|INTERRES
    75   37  101 1    
    76   38   39 2    
    77   38   40 1    
    78   40   41 1    
    79   40   42 1    
    80   40  102 1    
    81   41  103 1    
    82   41  104 1    
    83   41  105 1    
    84   42   43 am   BACKBONE|DICT|INTERRES
    85   42  106 1    
    86   43   44 2    
    87   43   45 1    
    88   45   46 1    
    89   45   49 1    
    90   45  107 1    
    91   46   47 1    
    92   46  108 1    
    93   46  109 1    
    94   47   48 1    
    95   48  110 1    
    96   48  111 1    
    97   49   50 am   BACKBONE|DICT|INTERRES
    98   49  112 1    
    99   50   51 2    
   100   50   52 1    
   101   52   53 1    
   102   52   54 1    
   103   52  113 1    
   104   53  114 1    
   105   53  115 1    
   106   53  116 1    
   107   54   55 am   BACKBONE|DICT|INTERRES
   108   54  117 1    
   109   55   56 2    
   110   55   57 1    
   111   57   58 1    
   112   57   59 1    
   113   57  118 1    
   114   58  119 1    
   115   58  120 1    
   116   58  121 1    
   117   59   60 am   BACKBONE|DICT|INTERRES
   118   59  122 1    
   119   60   61 2    
   120   60   62 1    
   121   62   63 1    
   122   62   64 1    
   123   62  123 1    
   124   63  124 1    
   125   63  125 1    
   126   63  126 1    
   127   64   65 am   BACKBONE|DICT|INTERRES
   128   64  127 1    
   129   65   66 2    
@<TRIPOS>SUBSTRUCTURE
     1 UNK         1 GROUP             0       ****    0 ROOT    
