@<TRIPOS>MOLECULE
3R134
127   129    1
SMALL
USER_CHARGES


@<TRIPOS>ATOM
      1 CA         30.3911  -43.8672  -50.0838 C.3       0 UNK        -0.1968 
      2 C          31.8737  -44.2028  -50.0117 C.2       0 UNK         0.4852 
      3 O          32.6737  -43.3588  -49.6058 O.2       0 UNK        -0.5359 
      4 N          32.2429  -45.4245  -50.4048 N.am      1 UNK        -0.4300 
      5 CA         33.6090  -45.9413  -50.4359 C.3       1 UNK         0.0863 
      6 C6         34.4712  -45.3443  -51.5846 C.3       11 UNK        -0.0953 
      7 S7         33.7245  -45.5119  -53.2447 S.3       11 UNK        -0.2369 
      8 C8         33.2988  -43.7812  -53.6017 C.3       11 UNK         0.0226 
      9 C9         32.2957  -43.6782  -54.7387 C.ar      11 UNK        -0.0699 
     10 C10        32.6945  -43.9298  -56.0532 C.ar      11 UNK        -0.0804 
     11 C11        31.7779  -43.8291  -57.1028 C.ar      11 UNK        -0.0871 
     12 C12        30.4581  -43.4596  -56.8293 C.ar      11 UNK        -0.1008 
     13 C13        30.0418  -43.1949  -55.5159 C.ar      11 UNK        -0.0735 
     14 C14        30.9712  -43.3160  -54.4784 C.ar      11 UNK        -0.0945 
     15 C15        28.6086  -42.7963  -55.1538 C.3       11 UNK         0.0169 
     16 S16        27.5003  -42.4831  -56.5702 S.3       11 UNK        -0.2669 
     17 C17        25.9002  -43.0820  -55.9253 C.3       11 UNK        -0.0850 
     18 CA         25.7670  -44.6365  -55.9034 C.3       10 UNK         0.0855 
     19 C          24.3809  -45.1080  -55.3678 C.2       10 UNK         0.5543 
     20 N          23.8742  -46.2706  -55.7584 N.am      10 UNK        -0.7343 
     21 O          23.7545  -44.4171  -54.5676 O.2       10 UNK        -0.5027 
     22 N          26.2058  -45.2798  -57.1535 N.am      10 UNK        -0.4495 
     23 C          25.6553  -45.1044  -58.3621 C.2       10 UNK         0.4903 
     24 O          24.6460  -44.4329  -58.5772 O.2       10 UNK        -0.4860 
     25 CA         26.3594  -45.7963  -59.5348 C.3       9 UNK         0.0227 
     26 CB         27.6173  -45.0135  -59.9481 C.3       9 UNK        -0.1964 
     27 N          26.7245  -47.1659  -59.1715 N.am      9 UNK        -0.4231 
     28 C          26.0480  -48.2535  -59.5603 C.2       9 UNK         0.5014 
     29 O          25.0939  -48.2311  -60.3395 O.2       9 UNK        -0.5270 
     30 CA         26.5054  -49.6034  -58.9856 C.3       8 UNK         0.0284 
     31 CB         27.6991  -50.1554  -59.7819 C.3       8 UNK        -0.1977 
     32 N          26.8406  -49.5708  -57.5596 N.am      8 UNK        -0.4342 
     33 C          25.9784  -49.3050  -56.5675 C.2       8 UNK         0.5039 
     34 O          24.8181  -48.9377  -56.7485 O.2       8 UNK        -0.5547 
     35 CA         26.4935  -49.4804  -55.1318 C.3       7 UNK         0.0281 
     36 CB         26.7026  -50.9678  -54.7995 C.3       7 UNK        -0.1963 
     37 N          27.7483  -48.7555  -54.9487 N.am      7 UNK        -0.4444 
     38 C          27.8672  -47.5881  -54.3032 C.2       7 UNK         0.5104 
     39 O          26.9551  -47.0649  -53.6636 O.2       7 UNK        -0.5100 
     40 CA         29.2219  -46.8576  -54.3908 C.3       6 UNK         0.0396 
     41 CB         29.9693  -46.9294  -53.0513 C.3       6 UNK        -0.1801 
     42 N          30.0989  -47.3348  -55.4637 N.am      6 UNK        -0.4747 
     43 C          29.8360  -47.2153  -56.7744 C.2       6 UNK         0.5012 
     44 O          28.8014  -46.7106  -57.2162 O.2       6 UNK        -0.5003 
     45 CA         30.8404  -47.8684  -57.7517 C.3       5 UNK         0.0782 
     46 C46        31.9803  -46.9053  -58.1617 C.3       11 UNK        -0.0868 
     47 S47        31.4102  -45.5653  -59.2606 S.3       11 UNK        -0.2515 
     48 C48        32.2188  -44.1017  -58.5353 C.3       11 UNK         0.0199 
     49 N          31.3854  -49.1344  -57.2464 N.am      5 UNK        -0.4607 
     50 C          30.6680  -50.2050  -56.8776 C.2       4 UNK         0.5031 
     51 O          29.4402  -50.2550  -56.9360 O.2       4 UNK        -0.5119 
     52 CA         31.4369  -51.4111  -56.3135 C.3       4 UNK         0.0263 
     53 CB         31.6773  -52.4510  -57.4190 C.3       4 UNK        -0.1967 
     54 N          32.7140  -51.0683  -55.6757 N.am      4 UNK        -0.4237 
     55 C          32.8438  -50.2868  -54.5947 C.2       3 UNK         0.4908 
     56 O          31.9026  -49.7153  -54.0391 O.2       3 UNK        -0.5102 
     57 CA         34.2683  -50.0819  -54.0737 C.3       3 UNK         0.0241 
     58 CB         34.9786  -48.9569  -54.8477 C.3       3 UNK        -0.1971 
     59 N          34.1991  -49.7418  -52.6567 N.am      3 UNK        -0.4139 
     60 C          35.1243  -50.0321  -51.7370 C.2       2 UNK         0.5016 
     61 O          36.1904  -50.5942  -51.9969 O.2       2 UNK        -0.5319 
     62 CA         34.8121  -49.5967  -50.2912 C.3       2 UNK         0.0286 
     63 CB         35.8939  -50.0420  -49.2885 C.3       2 UNK        -0.1963 
     64 N          34.6548  -48.1428  -50.2015 N.am      2 UNK        -0.4790 
     65 C          33.5336  -47.4755  -50.5002 C.2       1 UNK         0.5024 
     66 O          32.4822  -48.0286  -50.8374 O.2       1 UNK        -0.4888 
     67 H67        30.2311  -43.0187  -50.7484 H         1 UNK         0.0892 
     68 H68        30.0180  -43.6014  -49.0951 H         1 UNK         0.0892 
     69 H69        29.8004  -44.7044  -50.4551 H         1 UNK         0.0892 
     70 H70        31.5582  -46.1127  -50.6932 H         1 UNK         0.3107 
     71 H71        34.0794  -45.6905  -49.4827 H         1 UNK         0.0773 
     72 H72        34.6651  -44.2903  -51.3817 H         1 UNK         0.0680 
     73 H73        35.4570  -45.8115  -51.6093 H         1 UNK         0.0680 
     74 H74        34.2061  -43.2330  -53.8580 H         1 UNK         0.0650 
     75 H75        32.8971  -43.3111  -52.7036 H         1 UNK         0.0650 
     76 H76        33.7196  -44.2103  -56.2532 H         1 UNK         0.1397 
     77 H77        29.7647  -43.3930  -57.6544 H         1 UNK         0.1363 
     78 H78        30.6612  -43.1229  -53.4606 H         1 UNK         0.1355 
     79 H79        28.1878  -43.5803  -54.5255 H         1 UNK         0.0707 
     80 H80        28.6323  -41.8949  -54.5404 H         1 UNK         0.0707 
     81 H81        25.1105  -42.6483  -56.5410 H         1 UNK         0.1034 
     82 H82        25.7555  -42.6711  -54.9244 H         1 UNK         0.1034 
     83 H83        26.4720  -44.9930  -55.1562 H         1 UNK         0.0482 
     84 H84        22.9798  -46.5572  -55.3955 H         1 UNK         0.3460 
     85 H85        24.3851  -46.8962  -56.3680 H         1 UNK         0.3460 
     86 H86        27.0633  -45.8183  -57.0889 H         1 UNK         0.2989 
     87 H87        25.6755  -45.7956  -60.3858 H         1 UNK         0.0559 
     88 H88        28.1240  -45.4895  -60.7872 H         1 UNK         0.0848 
     89 H89        28.3341  -44.9286  -59.1314 H         1 UNK         0.0848 
     90 H90        27.3591  -43.9995  -60.2558 H         1 UNK         0.0848 
     91 H91        27.4850  -47.2663  -58.5059 H         1 UNK         0.3144 
     92 H92        25.6747  -50.3024  -59.1020 H         1 UNK         0.0727 
     93 H93        27.9763  -51.1532  -59.4411 H         1 UNK         0.0790 
     94 H94        28.5770  -49.5162  -59.6910 H         1 UNK         0.0790 
     95 H95        27.4590  -50.2309  -60.8432 H         1 UNK         0.0790 
     96 H96        27.7859  -49.8679  -57.3169 H         1 UNK         0.3215 
     97 H97        25.7273  -49.0930  -54.4565 H         1 UNK         0.0863 
     98 H98        27.0068  -51.0988  -53.7612 H         1 UNK         0.0808 
     99 H99        27.4645  -51.4281  -55.4295 H         1 UNK         0.0808 
    100 H100       25.7794  -51.5311  -54.9399 H         1 UNK         0.0808 
    101 H101       28.5509  -49.1048  -55.4591 H         1 UNK         0.3118 
    102 H102       29.0020  -45.8096  -54.5957 H         1 UNK         0.0546 
    103 H103       30.2509  -47.9521  -52.7990 H         1 UNK         0.0828 
    104 H104       29.3502  -46.5511  -52.2373 H         1 UNK         0.0828 
    105 H105       30.8763  -46.3271  -53.0750 H         1 UNK         0.0828 
    106 H106       30.9325  -47.8317  -55.1759 H         1 UNK         0.3005 
    107 H107       30.2766  -48.1198  -58.6520 H         1 UNK         0.1257 
    108 H108       32.4808  -46.5024  -57.2803 H         1 UNK         0.0775 
    109 H109       32.7480  -47.4507  -58.7129 H         1 UNK         0.0775 
    110 H110       33.3002  -44.2311  -58.5930 H         1 UNK         0.0840 
    111 H111       31.9842  -43.2318  -59.1493 H         1 UNK         0.0840 
    112 H112       32.3891  -49.1873  -57.1591 H         1 UNK         0.2987 
    113 H113       30.8009  -51.8652  -55.5505 H         1 UNK         0.0785 
    114 H114       32.3330  -52.0664  -58.2013 H         1 UNK         0.0798 
    115 H115       30.7383  -52.7395  -57.8941 H         1 UNK         0.0798 
    116 H116       32.1268  -53.3601  -57.0190 H         1 UNK         0.0798 
    117 H117       33.5426  -51.4870  -56.0744 H         1 UNK         0.3079 
    118 H118       34.8191  -51.0171  -54.1957 H         1 UNK         0.0794 
    119 H119       34.4311  -48.0162  -54.7810 H         1 UNK         0.0786 
    120 H120       35.0751  -49.2052  -55.9051 H         1 UNK         0.0786 
    121 H121       35.9841  -48.7846  -54.4636 H         1 UNK         0.0786 
    122 H122       33.3332  -49.2953  -52.3668 H         1 UNK         0.3032 
    123 H123       33.8757  -50.0814  -50.0041 H         1 UNK         0.1094 
    124 H124       35.6257  -49.7675  -48.2682 H         1 UNK         0.0794 
    125 H125       36.0211  -51.1253  -49.3071 H         1 UNK         0.0794 
    126 H126       36.8636  -49.5957  -49.5125 H         1 UNK         0.0794 
    127 H127       35.4855  -47.6183  -49.9655 H         1 UNK         0.3016 
@<TRIPOS>BOND
     1    1    2 1    
     2    1   67 1    
     3    1   68 1    
     4    1   69 1    
     5    2    3 2    
     6    2    4 am   BACKBONE|DICT|INTERRES
     7    4    5 1    
     8    4   70 1    
     9    5    6 1    
    10    5   65 1    
    11    5   71 1    
    12    6    7 1    
    13    6   72 1    
    14    6   73 1    
    15    7    8 1    
    16    8    9 1    
    17    8   74 1    
    18    8   75 1    
    19    9   10 ar   
    20    9   14 ar   
    21   10   11 ar   
    22   10   76 1    
    23   11   12 ar   
    24   11   48 1    
    25   12   13 ar   
    26   12   77 1    
    27   13   14 ar   
    28   13   15 1    
    29   14   78 1    
    30   15   16 1    
    31   15   79 1    
    32   15   80 1    
    33   16   17 1    
    34   17   18 1    
    35   17   81 1    
    36   17   82 1    
    37   18   19 1    
    38   18   22 1    
    39   18   83 1    
    40   19   20 am   BACKBONE|DICT|INTERRES
    41   19   21 2    
    42   20   84 1    
    43   20   85 1    
    44   22   23 am   BACKBONE|DICT|INTERRES
    45   22   86 1    
    46   23   24 2    
    47   23   25 1    
    48   25   26 1    
    49   25   27 1    
    50   25   87 1    
    51   26   88 1    
    52   26   89 1    
    53   26   90 1    
    54   27   28 am   BACKBONE|DICT|INTERRES
    55   27   91 1    
    56   28   29 2    
    57   28   30 1    
    58   30   31 1    
    59   30   32 1    
    60   30   92 1    
    61   31   93 1    
    62   31   94 1    
    63   31   95 1    
    64   32   33 am   BACKBONE|DICT|INTERRES
    65   32   96 1    
    66   33   34 2    
    67   33   35 1    
    68   35   36 1    
    69   35   37 1    
    70   35   97 1    
    71   36   98 1    
    72   36   99 1    
    73   36  100 1    
    74   37   38 am   BACKBONE|DICT|INTERRES
    75   37  101 1    
    76   38   39 2    
    77   38   40 1    
    78   40   41 1    
    79   40   42 1    
    80   40  102 1    
    81   41  103 1    
    82   41  104 1    
    83   41  105 1    
    84   42   43 am   BACKBONE|DICT|INTERRES
    85   42  106 1    
    86   43   44 2    
    87   43   45 1    
    88   45   46 1    
    89   45   49 1    
    90   45  107 1    
    91   46   47 1    
    92   46  108 1    
    93   46  109 1    
    94   47   48 1    
    95   48  110 1    
    96   48  111 1    
    97   49   50 am   BACKBONE|DICT|INTERRES
    98   49  112 1    
    99   50   51 2    
   100   50   52 1    
   101   52   53 1    
   102   52   54 1    
   103   52  113 1    
   104   53  114 1    
   105   53  115 1    
   106   53  116 1    
   107   54   55 am   BACKBONE|DICT|INTERRES
   108   54  117 1    
   109   55   56 2    
   110   55   57 1    
   111   57   58 1    
   112   57   59 1    
   113   57  118 1    
   114   58  119 1    
   115   58  120 1    
   116   58  121 1    
   117   59   60 am   BACKBONE|DICT|INTERRES
   118   59  122 1    
   119   60   61 2    
   120   60   62 1    
   121   62   63 1    
   122   62   64 1    
   123   62  123 1    
   124   63  124 1    
   125   63  125 1    
   126   63  126 1    
   127   64   65 am   BACKBONE|DICT|INTERRES
   128   64  127 1    
   129   65   66 2    
@<TRIPOS>SUBSTRUCTURE
     1 UNK         1 GROUP             0       ****    0 ROOT    
