@<TRIPOS>MOLECULE
3R134
127   129    1
SMALL
USER_CHARGES


@<TRIPOS>ATOM
      1 CA         35.1047  -48.0301  -54.8030 C.3       0 UNK        -0.1968 
      2 C          33.9616  -47.3064  -54.1086 C.2       0 UNK         0.4852 
      3 O          32.8215  -47.7714  -54.1758 O.2       0 UNK        -0.5359 
      4 N          34.2649  -46.1884  -53.4336 N.am      1 UNK        -0.4300 
      5 CA         33.3215  -45.2529  -52.7974 C.3       1 UNK         0.0863 
      6 C6         34.0466  -44.0184  -52.2007 C.3       11 UNK        -0.0953 
      7 S7         35.1785  -43.1903  -53.3661 S.3       11 UNK        -0.2369 
      8 C8         34.1387  -41.8318  -53.9894 C.3       11 UNK         0.0226 
      9 C9         33.0548  -42.3263  -54.9371 C.ar      11 UNK        -0.0699 
     10 C10        33.4101  -42.9449  -56.1392 C.ar      11 UNK        -0.0804 
     11 C11        32.4303  -43.3864  -57.0321 C.ar      11 UNK        -0.0871 
     12 C12        31.0811  -43.1850  -56.7209 C.ar      11 UNK        -0.1008 
     13 C13        30.7118  -42.5699  -55.5218 C.ar      11 UNK        -0.0735 
     14 C14        31.7024  -42.1462  -54.6299 C.ar      11 UNK        -0.0945 
     15 C15        29.2421  -42.3528  -55.2016 C.3       11 UNK         0.0169 
     16 S16        28.5622  -43.7571  -54.2713 S.3       11 UNK        -0.2669 
     17 C17        26.8083  -43.2716  -54.1274 C.3       11 UNK        -0.0850 
     18 CA         25.8200  -44.2861  -54.7666 C.3       10 UNK         0.0855 
     19 C          24.3544  -43.8351  -54.4905 C.2       10 UNK         0.5543 
     20 N          23.6019  -43.3742  -55.4824 N.am      10 UNK        -0.7343 
     21 O          23.8978  -43.8992  -53.3519 O.2       10 UNK        -0.5027 
     22 N          26.1438  -44.5635  -56.1787 N.am      10 UNK        -0.4495 
     23 C          25.5888  -45.5261  -56.9299 C.2       10 UNK         0.4903 
     24 O          24.6996  -46.2792  -56.5323 O.2       10 UNK        -0.4860 
     25 CA         26.0842  -45.6745  -58.3775 C.3       9 UNK         0.0227 
     26 CB         27.1073  -44.6031  -58.8137 C.3       9 UNK        -0.1964 
     27 N          26.6910  -46.9946  -58.5203 N.am      9 UNK        -0.4231 
     28 C          26.2773  -47.9728  -59.3336 C.2       9 UNK         0.5014 
     29 O          25.3078  -47.8806  -60.0887 O.2       9 UNK        -0.5270 
     30 CA         27.1007  -49.2736  -59.3249 C.3       8 UNK         0.0284 
     31 CB         28.3956  -49.0970  -60.1352 C.3       8 UNK        -0.1977 
     32 N          27.4250  -49.7502  -57.9772 N.am      8 UNK        -0.4342 
     33 C          26.5351  -50.2791  -57.1244 C.2       8 UNK         0.5039 
     34 O          25.3430  -50.4394  -57.3894 O.2       8 UNK        -0.5547 
     35 CA         27.0606  -50.7124  -55.7439 C.3       7 UNK         0.0281 
     36 CB         27.7409  -52.0892  -55.8161 C.3       7 UNK        -0.1963 
     37 N          27.9842  -49.7328  -55.1723 N.am      7 UNK        -0.4444 
     38 C          27.6134  -48.5352  -54.7008 C.2       7 UNK         0.5104 
     39 O          26.4420  -48.1802  -54.5805 O.2       7 UNK        -0.5100 
     40 CA         28.7354  -47.5608  -54.3069 C.3       6 UNK         0.0396 
     41 CB         29.0922  -47.7192  -52.8237 C.3       6 UNK        -0.1801 
     42 N          29.9383  -47.6933  -55.1371 N.am      6 UNK        -0.4747 
     43 C          29.9778  -47.4074  -56.4470 C.2       6 UNK         0.5012 
     44 O          29.0267  -46.9321  -57.0630 O.2       6 UNK        -0.5003 
     45 CA         31.2497  -47.7963  -57.2244 C.3       5 UNK         0.0782 
     46 C46        32.2735  -46.6402  -57.3233 C.3       11 UNK        -0.0868 
     47 S47        31.8836  -45.5495  -58.7331 S.3       11 UNK        -0.2515 
     48 C48        32.8485  -44.0558  -58.3368 C.3       11 UNK         0.0199 
     49 N          31.8335  -49.0368  -56.7076 N.am      5 UNK        -0.4607 
     50 C          31.3156  -50.2444  -56.9670 C.2       4 UNK         0.5031 
     51 O          30.3108  -50.4152  -57.6580 O.2       4 UNK        -0.5119 
     52 CA         32.0088  -51.4650  -56.3403 C.3       4 UNK         0.0263 
     53 CB         33.1911  -51.9136  -57.2138 C.3       4 UNK        -0.1967 
     54 N          32.4669  -51.2741  -54.9604 N.am      4 UNK        -0.4237 
     55 C          31.6846  -50.9438  -53.9235 C.2       3 UNK         0.4908 
     56 O          30.4928  -50.6588  -54.0363 O.2       3 UNK        -0.5102 
     57 CA         32.3159  -50.9481  -52.5239 C.3       3 UNK         0.0241 
     58 CB         33.7757  -51.4497  -52.4688 C.3       3 UNK        -0.1971 
     59 N          32.2279  -49.6061  -51.9548 N.am      3 UNK        -0.4139 
     60 C          32.0370  -49.3336  -50.6561 C.2       2 UNK         0.5016 
     61 O          31.8904  -50.2031  -49.7952 O.2       2 UNK        -0.5319 
     62 CA         32.0311  -47.8505  -50.2396 C.3       2 UNK         0.0286 
     63 CB         32.5761  -47.6321  -48.8151 C.3       2 UNK        -0.1963 
     64 N          32.8067  -47.0426  -51.1812 N.am      2 UNK        -0.4790 
     65 C          32.4157  -45.8787  -51.7136 C.2       1 UNK         0.5024 
     66 O          31.3892  -45.2887  -51.3763 O.2       1 UNK        -0.4888 
     67 H67        36.0731  -47.6010  -54.5462 H         1 UNK         0.0892 
     68 H68        35.1167  -49.0810  -54.5197 H         1 UNK         0.0892 
     69 H69        34.9849  -47.9707  -55.8839 H         1 UNK         0.0892 
     70 H70        35.2251  -45.8740  -53.4224 H         1 UNK         0.3107 
     71 H71        32.6530  -44.9059  -53.5883 H         1 UNK         0.0773 
     72 H72        33.3218  -43.2880  -51.8354 H         1 UNK         0.0680 
     73 H73        34.6388  -44.3123  -51.3317 H         1 UNK         0.0680 
     74 H74        34.7742  -41.1238  -54.5231 H         1 UNK         0.0650 
     75 H75        33.7108  -41.2840  -53.1484 H         1 UNK         0.0650 
     76 H76        34.4568  -43.0819  -56.3751 H         1 UNK         0.1397 
     77 H77        30.3155  -43.5148  -57.4097 H         1 UNK         0.1363 
     78 H78        31.4178  -41.6696  -53.7017 H         1 UNK         0.1355 
     79 H79        28.6748  -42.2164  -56.1237 H         1 UNK         0.0707 
     80 H80        29.1161  -41.4376  -54.6209 H         1 UNK         0.0707 
     81 H81        26.5945  -43.1595  -53.0624 H         1 UNK         0.1034 
     82 H82        26.6640  -42.2808  -54.5625 H         1 UNK         0.1034 
     83 H83        25.9429  -45.2340  -54.2386 H         1 UNK         0.0482 
     84 H84        22.6550  -43.0858  -55.2929 H         1 UNK         0.3460 
     85 H85        23.9682  -43.3239  -56.4191 H         1 UNK         0.3460 
     86 H86        26.8799  -44.0031  -56.5793 H         1 UNK         0.2989 
     87 H87        25.2065  -45.5842  -59.0204 H         1 UNK         0.0559 
     88 H88        28.0219  -44.6398  -58.2199 H         1 UNK         0.0848 
     89 H89        26.6908  -43.5981  -58.7342 H         1 UNK         0.0848 
     90 H90        27.3936  -44.7441  -59.8561 H         1 UNK         0.0848 
     91 H91        27.5080  -47.1552  -57.9302 H         1 UNK         0.3144 
     92 H92        26.5038  -50.0457  -59.8151 H         1 UNK         0.0727 
     93 H93        29.0413  -48.3318  -59.7042 H         1 UNK         0.0790 
     94 H94        28.1750  -48.7962  -61.1603 H         1 UNK         0.0790 
     95 H95        28.9636  -50.0263  -60.1851 H         1 UNK         0.0790 
     96 H96        28.4036  -49.7335  -57.7069 H         1 UNK         0.3215 
     97 H97        26.2020  -50.7980  -55.0740 H         1 UNK         0.0863 
     98 H98        28.0772  -52.4166  -54.8320 H         1 UNK         0.0808 
     99 H99        28.6061  -52.0833  -56.4786 H         1 UNK         0.0808 
    100 H100       27.0493  -52.8445  -56.1915 H         1 UNK         0.0808 
    101 H101       28.9667  -49.9856  -55.1195 H         1 UNK         0.3118 
    102 H102       28.3432  -46.5551  -54.4538 H         1 UNK         0.0546 
    103 H103       28.2131  -47.5724  -52.1950 H         1 UNK         0.0828 
    104 H104       29.8284  -46.9790  -52.5229 H         1 UNK         0.0828 
    105 H105       29.4902  -48.7083  -52.6009 H         1 UNK         0.0828 
    106 H106       30.7744  -48.0631  -54.6995 H         1 UNK         0.3005 
    107 H107       30.9222  -48.0211  -58.2422 H         1 UNK         0.1257 
    108 H108       33.2774  -47.0313  -57.4935 H         1 UNK         0.0775 
    109 H109       32.3218  -46.0683  -56.3947 H         1 UNK         0.0775 
    110 H110       33.9056  -44.3255  -58.3131 H         1 UNK         0.0840 
    111 H111       32.7316  -43.3377  -59.1494 H         1 UNK         0.0840 
    112 H112       32.5937  -48.9469  -56.0473 H         1 UNK         0.2987 
    113 H113       31.2755  -52.2741  -56.3242 H         1 UNK         0.0785 
    114 H114       32.8737  -52.0810  -58.2443 H         1 UNK         0.0798 
    115 H115       33.6189  -52.8496  -56.8543 H         1 UNK         0.0798 
    116 H116       33.9853  -51.1662  -57.2351 H         1 UNK         0.0798 
    117 H117       33.4345  -51.4922  -54.7733 H         1 UNK         0.3079 
    118 H118       31.7028  -51.6307  -51.9316 H         1 UNK         0.0794 
    119 H119       34.4578  -50.7928  -53.0080 H         1 UNK         0.0786 
    120 H120       33.8692  -52.4539  -52.8847 H         1 UNK         0.0786 
    121 H121       34.1267  -51.5052  -51.4381 H         1 UNK         0.0786 
    122 H122       32.2919  -48.8422  -52.6230 H         1 UNK         0.3032 
    123 H123       30.9838  -47.5403  -50.2561 H         1 UNK         0.1094 
    124 H124       33.6076  -47.9740  -48.7231 H         1 UNK         0.0794 
    125 H125       32.5459  -46.5782  -48.5377 H         1 UNK         0.0794 
    126 H126       31.9830  -48.1747  -48.0779 H         1 UNK         0.0794 
    127 H127       33.6752  -47.4448  -51.5061 H         1 UNK         0.3016 
@<TRIPOS>BOND
     1    1    2 1    
     2    1   67 1    
     3    1   68 1    
     4    1   69 1    
     5    2    3 2    
     6    2    4 am   BACKBONE|DICT|INTERRES
     7    4    5 1    
     8    4   70 1    
     9    5    6 1    
    10    5   65 1    
    11    5   71 1    
    12    6    7 1    
    13    6   72 1    
    14    6   73 1    
    15    7    8 1    
    16    8    9 1    
    17    8   74 1    
    18    8   75 1    
    19    9   10 ar   
    20    9   14 ar   
    21   10   11 ar   
    22   10   76 1    
    23   11   12 ar   
    24   11   48 1    
    25   12   13 ar   
    26   12   77 1    
    27   13   14 ar   
    28   13   15 1    
    29   14   78 1    
    30   15   16 1    
    31   15   79 1    
    32   15   80 1    
    33   16   17 1    
    34   17   18 1    
    35   17   81 1    
    36   17   82 1    
    37   18   19 1    
    38   18   22 1    
    39   18   83 1    
    40   19   20 am   BACKBONE|DICT|INTERRES
    41   19   21 2    
    42   20   84 1    
    43   20   85 1    
    44   22   23 am   BACKBONE|DICT|INTERRES
    45   22   86 1    
    46   23   24 2    
    47   23   25 1    
    48   25   26 1    
    49   25   27 1    
    50   25   87 1    
    51   26   88 1    
    52   26   89 1    
    53   26   90 1    
    54   27   28 am   BACKBONE|DICT|INTERRES
    55   27   91 1    
    56   28   29 2    
    57   28   30 1    
    58   30   31 1    
    59   30   32 1    
    60   30   92 1    
    61   31   93 1    
    62   31   94 1    
    63   31   95 1    
    64   32   33 am   BACKBONE|DICT|INTERRES
    65   32   96 1    
    66   33   34 2    
    67   33   35 1    
    68   35   36 1    
    69   35   37 1    
    70   35   97 1    
    71   36   98 1    
    72   36   99 1    
    73   36  100 1    
    74   37   38 am   BACKBONE|DICT|INTERRES
    75   37  101 1    
    76   38   39 2    
    77   38   40 1    
    78   40   41 1    
    79   40   42 1    
    80   40  102 1    
    81   41  103 1    
    82   41  104 1    
    83   41  105 1    
    84   42   43 am   BACKBONE|DICT|INTERRES
    85   42  106 1    
    86   43   44 2    
    87   43   45 1    
    88   45   46 1    
    89   45   49 1    
    90   45  107 1    
    91   46   47 1    
    92   46  108 1    
    93   46  109 1    
    94   47   48 1    
    95   48  110 1    
    96   48  111 1    
    97   49   50 am   BACKBONE|DICT|INTERRES
    98   49  112 1    
    99   50   51 2    
   100   50   52 1    
   101   52   53 1    
   102   52   54 1    
   103   52  113 1    
   104   53  114 1    
   105   53  115 1    
   106   53  116 1    
   107   54   55 am   BACKBONE|DICT|INTERRES
   108   54  117 1    
   109   55   56 2    
   110   55   57 1    
   111   57   58 1    
   112   57   59 1    
   113   57  118 1    
   114   58  119 1    
   115   58  120 1    
   116   58  121 1    
   117   59   60 am   BACKBONE|DICT|INTERRES
   118   59  122 1    
   119   60   61 2    
   120   60   62 1    
   121   62   63 1    
   122   62   64 1    
   123   62  123 1    
   124   63  124 1    
   125   63  125 1    
   126   63  126 1    
   127   64   65 am   BACKBONE|DICT|INTERRES
   128   64  127 1    
   129   65   66 2    
@<TRIPOS>SUBSTRUCTURE
     1 UNK         1 GROUP             0       ****    0 ROOT    
