@<TRIPOS>MOLECULE
3R134
127   129    1
SMALL
USER_CHARGES


@<TRIPOS>ATOM
      1 CA         38.3391  -43.1951  -53.9206 C.3       0 UNK        -0.1968 
      2 C          37.3408  -43.7862  -54.9051 C.2       0 UNK         0.4852 
      3 O          37.6895  -44.0171  -56.0638 O.2       0 UNK        -0.5359 
      4 N          36.1028  -44.0289  -54.4532 N.am      1 UNK        -0.4300 
      5 CA         35.0163  -44.6255  -55.2409 C.3       1 UNK         0.0863 
      6 C6         33.6299  -44.3814  -54.5919 C.3       11 UNK        -0.0953 
      7 S7         33.5271  -44.9167  -52.8467 S.3       11 UNK        -0.2369 
      8 C8         32.1148  -46.0596  -52.8794 C.3       11 UNK         0.0226 
      9 C9         30.7923  -45.3428  -52.6575 C.ar      11 UNK        -0.0699 
     10 C10        30.2024  -45.3483  -51.3908 C.ar      11 UNK        -0.0804 
     11 C11        28.9598  -44.7428  -51.1807 C.ar      11 UNK        -0.0871 
     12 C12        28.3289  -44.0840  -52.2403 C.ar      11 UNK        -0.1008 
     13 C13        28.9119  -44.0676  -53.5116 C.ar      11 UNK        -0.0735 
     14 C14        30.1392  -44.7053  -53.7153 C.ar      11 UNK        -0.0945 
     15 C15        28.2159  -43.3663  -54.6673 C.3       11 UNK         0.0169 
     16 S16        26.6471  -44.1830  -55.0878 S.3       11 UNK        -0.2669 
     17 C17        26.2745  -43.4194  -56.7037 C.3       11 UNK        -0.0850 
     18 CA         26.1892  -44.4653  -57.8532 C.3       10 UNK         0.0855 
     19 C          25.7334  -43.8398  -59.2081 C.2       10 UNK         0.5543 
     20 N          26.1712  -44.3478  -60.3551 N.am      10 UNK        -0.7343 
     21 O          24.9443  -42.8982  -59.2251 O.2       10 UNK        -0.5027 
     22 N          27.3773  -45.3309  -57.9556 N.am      10 UNK        -0.4495 
     23 C          28.6228  -44.9454  -58.2659 C.2       10 UNK         0.4903 
     24 O          28.9733  -43.7722  -58.3927 O.2       10 UNK        -0.4860 
     25 CA         29.6556  -46.0639  -58.5068 C.3       9 UNK         0.0227 
     26 CB         30.5470  -46.2481  -57.2681 C.3       9 UNK        -0.1964 
     27 N          29.0723  -47.3599  -58.8764 N.am      9 UNK        -0.4231 
     28 C          28.3032  -47.6136  -59.9440 C.2       9 UNK         0.5014 
     29 O          27.9846  -46.7581  -60.7712 O.2       9 UNK        -0.5270 
     30 CA         27.7484  -49.0431  -60.0970 C.3       8 UNK         0.0284 
     31 CB         28.7424  -49.9447  -60.8550 C.3       8 UNK        -0.1977 
     32 N          27.2958  -49.6663  -58.8409 N.am      8 UNK        -0.4342 
     33 C          28.0225  -50.0466  -57.7810 C.2       8 UNK         0.5039 
     34 O          29.2414  -49.8903  -57.6927 O.2       8 UNK        -0.5547 
     35 CA         27.2367  -50.6163  -56.5920 C.3       7 UNK         0.0281 
     36 CB         28.0901  -51.5550  -55.7227 C.3       7 UNK        -0.1963 
     37 N          26.7334  -49.5099  -55.7758 N.am      7 UNK        -0.4444 
     38 C          25.5870  -48.8590  -56.0237 C.2       7 UNK         0.5104 
     39 O          24.8357  -49.1669  -56.9507 O.2       7 UNK        -0.5100 
     40 CA         25.2214  -47.6383  -55.1532 C.3       6 UNK         0.0396 
     41 CB         23.7422  -47.6571  -54.7153 C.3       6 UNK        -0.1801 
     42 N          26.1150  -47.3895  -54.0146 N.am      6 UNK        -0.4747 
     43 C          26.2648  -48.1332  -52.9091 C.2       6 UNK         0.5012 
     44 O          25.6242  -49.1582  -52.6675 O.2       6 UNK        -0.5003 
     45 CA         27.3498  -47.6674  -51.9176 C.3       5 UNK         0.0782 
     46 C46        26.7153  -47.0873  -50.6262 C.3       11 UNK        -0.0868 
     47 S47        27.9399  -46.5804  -49.3678 S.3       11 UNK        -0.2515 
     48 C48        28.2818  -44.8456  -49.8219 C.3       11 UNK         0.0199 
     49 N          28.3165  -48.7401  -51.6590 N.am      5 UNK        -0.4607 
     50 C          29.1026  -49.2756  -52.6004 C.2       4 UNK         0.5031 
     51 O          29.0735  -48.9285  -53.7851 O.2       4 UNK        -0.5119 
     52 CA         30.0582  -50.3942  -52.1505 C.3       4 UNK         0.0263 
     53 CB         29.3001  -51.7176  -51.9536 C.3       4 UNK        -0.1967 
     54 N          31.0964  -50.5845  -53.1643 N.am      4 UNK        -0.4237 
     55 C          32.2517  -49.9123  -53.1888 C.2       3 UNK         0.4908 
     56 O          32.6894  -49.2607  -52.2374 O.2       3 UNK        -0.5102 
     57 CA         33.0326  -49.9549  -54.5094 C.3       3 UNK         0.0241 
     58 CB         32.1758  -49.4482  -55.6893 C.3       3 UNK        -0.1971 
     59 N          34.2275  -49.1238  -54.3826 N.am      3 UNK        -0.4139 
     60 C          35.3393  -49.2404  -55.1153 C.2       2 UNK         0.5016 
     61 O          35.4966  -50.1021  -55.9835 O.2       2 UNK        -0.5319 
     62 CA         36.4557  -48.2138  -54.8293 C.3       2 UNK         0.0286 
     63 CB         37.5948  -48.2670  -55.8700 C.3       2 UNK        -0.1963 
     64 N          35.9729  -46.8308  -54.6867 N.am      2 UNK        -0.4790 
     65 C          35.2570  -46.1162  -55.5736 C.2       1 UNK         0.5024 
     66 O          34.8162  -46.5682  -56.6309 O.2       1 UNK        -0.4888 
     67 H67        37.8979  -43.0376  -52.9365 H         1 UNK         0.0892 
     68 H68        39.1929  -43.8625  -53.8064 H         1 UNK         0.0892 
     69 H69        38.7029  -42.2352  -54.2862 H         1 UNK         0.0892 
     70 H70        35.8680  -43.8129  -53.4941 H         1 UNK         0.3107 
     71 H71        35.0061  -44.1071  -56.2026 H         1 UNK         0.0773 
     72 H72        32.8492  -44.8597  -55.1845 H         1 UNK         0.0680 
     73 H73        33.4011  -43.3150  -54.6182 H         1 UNK         0.0680 
     74 H74        32.2648  -46.7860  -52.0819 H         1 UNK         0.0650 
     75 H75        32.0957  -46.6266  -53.8109 H         1 UNK         0.0650 
     76 H76        30.6918  -45.8581  -50.5720 H         1 UNK         0.1397 
     77 H77        27.3696  -43.6076  -52.0886 H         1 UNK         0.1363 
     78 H78        30.5874  -44.7029  -54.6973 H         1 UNK         0.1355 
     79 H79        28.0234  -42.3260  -54.4017 H         1 UNK         0.0707 
     80 H80        28.8621  -43.3502  -55.5464 H         1 UNK         0.0707 
     81 H81        25.3237  -42.8936  -56.6004 H         1 UNK         0.1034 
     82 H82        27.0120  -42.6508  -56.9399 H         1 UNK         0.1034 
     83 H83        25.3751  -45.1432  -57.5958 H         1 UNK         0.0482 
     84 H84        26.8153  -45.1309  -60.3714 H         1 UNK         0.3460 
     85 H85        25.8594  -43.9403  -61.2222 H         1 UNK         0.3460 
     86 H86        27.2014  -46.3211  -57.8882 H         1 UNK         0.2989 
     87 H87        30.2874  -45.7452  -59.3380 H         1 UNK         0.0559 
     88 H88        31.0233  -45.3076  -56.9896 H         1 UNK         0.0848 
     89 H89        31.3452  -46.9658  -57.4582 H         1 UNK         0.0848 
     90 H90        29.9762  -46.5988  -56.4066 H         1 UNK         0.0848 
     91 H91        29.2907  -48.1582  -58.2804 H         1 UNK         0.3144 
     92 H92        26.8533  -48.9590  -60.7157 H         1 UNK         0.0727 
     93 H93        28.3245  -50.9361  -61.0299 H         1 UNK         0.0790 
     94 H94        29.6808  -50.0672  -60.3133 H         1 UNK         0.0790 
     95 H95        28.9862  -49.5194  -61.8295 H         1 UNK         0.0790 
     96 H96        26.2907  -49.7634  -58.7546 H         1 UNK         0.3215 
     97 H97        26.4008  -51.2038  -56.9789 H         1 UNK         0.0863 
     98 H98        27.5087  -51.9588  -54.8942 H         1 UNK         0.0808 
     99 H99        28.9618  -51.0484  -55.3112 H         1 UNK         0.0808 
    100 H100       28.4542  -52.4003  -56.3079 H         1 UNK         0.0808 
    101 H101       27.3459  -49.1763  -55.0388 H         1 UNK         0.3118 
    102 H102       25.3452  -46.7769  -55.8085 H         1 UNK         0.0546 
    103 H103       23.5044  -48.5366  -54.1166 H         1 UNK         0.0828 
    104 H104       23.0784  -47.6694  -55.5807 H         1 UNK         0.0828 
    105 H105       23.4902  -46.7726  -54.1306 H         1 UNK         0.0828 
    106 H106       26.6971  -46.5673  -54.1181 H         1 UNK         0.3005 
    107 H107       27.9118  -46.8703  -52.4047 H         1 UNK         0.1257 
    108 H108       26.0600  -47.8274  -50.1626 H         1 UNK         0.0775 
    109 H109       26.0811  -46.2312  -50.8646 H         1 UNK         0.0775 
    110 H110       27.3512  -44.2762  -49.7999 H         1 UNK         0.0840 
    111 H111       28.9315  -44.4026  -49.0659 H         1 UNK         0.0840 
    112 H112       28.3693  -49.0737  -50.7080 H         1 UNK         0.2987 
    113 H113       30.5108  -50.1039  -51.1997 H         1 UNK         0.0785 
    114 H114       29.9723  -52.5123  -51.6297 H         1 UNK         0.0798 
    115 H115       28.8112  -52.0476  -52.8697 H         1 UNK         0.0798 
    116 H116       28.5270  -51.6191  -51.1904 H         1 UNK         0.0798 
    117 H117       30.8024  -51.0517  -54.0091 H         1 UNK         0.3079 
    118 H118       33.3319  -50.9897  -54.6886 H         1 UNK         0.0794 
    119 H119       31.3268  -50.1046  -55.8812 H         1 UNK         0.0786 
    120 H120       32.7514  -49.3995  -56.6138 H         1 UNK         0.0786 
    121 H121       31.7768  -48.4525  -55.4942 H         1 UNK         0.0786 
    122 H122       34.1878  -48.4427  -53.6347 H         1 UNK         0.3032 
    123 H123       36.8806  -48.4968  -53.8646 H         1 UNK         0.1094 
    124 H124       38.3884  -47.5605  -55.6263 H         1 UNK         0.0794 
    125 H125       38.0465  -49.2591  -55.9083 H         1 UNK         0.0794 
    126 H126       37.2356  -48.0331  -56.8729 H         1 UNK         0.0794 
    127 H127       36.2581  -46.3550  -53.8419 H         1 UNK         0.3016 
@<TRIPOS>BOND
     1    1    2 1    
     2    1   67 1    
     3    1   68 1    
     4    1   69 1    
     5    2    3 2    
     6    2    4 am   BACKBONE|DICT|INTERRES
     7    4    5 1    
     8    4   70 1    
     9    5    6 1    
    10    5   65 1    
    11    5   71 1    
    12    6    7 1    
    13    6   72 1    
    14    6   73 1    
    15    7    8 1    
    16    8    9 1    
    17    8   74 1    
    18    8   75 1    
    19    9   10 ar   
    20    9   14 ar   
    21   10   11 ar   
    22   10   76 1    
    23   11   12 ar   
    24   11   48 1    
    25   12   13 ar   
    26   12   77 1    
    27   13   14 ar   
    28   13   15 1    
    29   14   78 1    
    30   15   16 1    
    31   15   79 1    
    32   15   80 1    
    33   16   17 1    
    34   17   18 1    
    35   17   81 1    
    36   17   82 1    
    37   18   19 1    
    38   18   22 1    
    39   18   83 1    
    40   19   20 am   BACKBONE|DICT|INTERRES
    41   19   21 2    
    42   20   84 1    
    43   20   85 1    
    44   22   23 am   BACKBONE|DICT|INTERRES
    45   22   86 1    
    46   23   24 2    
    47   23   25 1    
    48   25   26 1    
    49   25   27 1    
    50   25   87 1    
    51   26   88 1    
    52   26   89 1    
    53   26   90 1    
    54   27   28 am   BACKBONE|DICT|INTERRES
    55   27   91 1    
    56   28   29 2    
    57   28   30 1    
    58   30   31 1    
    59   30   32 1    
    60   30   92 1    
    61   31   93 1    
    62   31   94 1    
    63   31   95 1    
    64   32   33 am   BACKBONE|DICT|INTERRES
    65   32   96 1    
    66   33   34 2    
    67   33   35 1    
    68   35   36 1    
    69   35   37 1    
    70   35   97 1    
    71   36   98 1    
    72   36   99 1    
    73   36  100 1    
    74   37   38 am   BACKBONE|DICT|INTERRES
    75   37  101 1    
    76   38   39 2    
    77   38   40 1    
    78   40   41 1    
    79   40   42 1    
    80   40  102 1    
    81   41  103 1    
    82   41  104 1    
    83   41  105 1    
    84   42   43 am   BACKBONE|DICT|INTERRES
    85   42  106 1    
    86   43   44 2    
    87   43   45 1    
    88   45   46 1    
    89   45   49 1    
    90   45  107 1    
    91   46   47 1    
    92   46  108 1    
    93   46  109 1    
    94   47   48 1    
    95   48  110 1    
    96   48  111 1    
    97   49   50 am   BACKBONE|DICT|INTERRES
    98   49  112 1    
    99   50   51 2    
   100   50   52 1    
   101   52   53 1    
   102   52   54 1    
   103   52  113 1    
   104   53  114 1    
   105   53  115 1    
   106   53  116 1    
   107   54   55 am   BACKBONE|DICT|INTERRES
   108   54  117 1    
   109   55   56 2    
   110   55   57 1    
   111   57   58 1    
   112   57   59 1    
   113   57  118 1    
   114   58  119 1    
   115   58  120 1    
   116   58  121 1    
   117   59   60 am   BACKBONE|DICT|INTERRES
   118   59  122 1    
   119   60   61 2    
   120   60   62 1    
   121   62   63 1    
   122   62   64 1    
   123   62  123 1    
   124   63  124 1    
   125   63  125 1    
   126   63  126 1    
   127   64   65 am   BACKBONE|DICT|INTERRES
   128   64  127 1    
   129   65   66 2    
@<TRIPOS>SUBSTRUCTURE
     1 UNK         1 GROUP             0       ****    0 ROOT    
