@<TRIPOS>MOLECULE
3R134
127   129    1
SMALL
USER_CHARGES


@<TRIPOS>ATOM
      1 CA         36.3264  -44.5601  -47.7189 C.3       0 UNK        -0.1968 
      2 C          36.3667  -44.8620  -49.2100 C.2       0 UNK         0.4852 
      3 O          37.3529  -45.4206  -49.6941 O.2       0 UNK        -0.5359 
      4 N          35.3083  -44.4888  -49.9403 N.am      1 UNK        -0.4300 
      5 CA         35.1333  -44.7599  -51.3701 C.3       1 UNK         0.0863 
      6 C6         34.1213  -43.7797  -52.0180 C.3       11 UNK        -0.0953 
      7 S7         32.4829  -43.7039  -51.2087 S.3       11 UNK        -0.2369 
      8 C8         31.4785  -44.8320  -52.2252 C.3       11 UNK         0.0226 
      9 C9         31.1292  -44.2468  -53.5861 C.ar      11 UNK        -0.0699 
     10 C10        31.9309  -44.5181  -54.6982 C.ar      11 UNK        -0.0804 
     11 C11        31.6200  -43.9793  -55.9501 C.ar      11 UNK        -0.0871 
     12 C12        30.4726  -43.1946  -56.0928 C.ar      11 UNK        -0.1008 
     13 C13        29.6523  -42.9281  -54.9922 C.ar      11 UNK        -0.0735 
     14 C14        29.9926  -43.4477  -53.7387 C.ar      11 UNK        -0.0945 
     15 C15        28.4125  -42.0594  -55.1598 C.3       11 UNK         0.0169 
     16 S16        26.8765  -42.9082  -54.6675 S.3       11 UNK        -0.2669 
     17 C17        26.8316  -44.3363  -55.8027 C.3       11 UNK        -0.0850 
     18 CA         25.8503  -44.1410  -56.9845 C.3       10 UNK         0.0855 
     19 C          26.5052  -43.3429  -58.1463 C.2       10 UNK         0.5543 
     20 N          26.2267  -42.0501  -58.2480 N.am      10 UNK        -0.7343 
     21 O          27.2898  -43.8746  -58.9276 O.2       10 UNK        -0.5027 
     22 N          25.2875  -45.4299  -57.4158 N.am      10 UNK        -0.4495 
     23 C          24.2583  -45.5634  -58.2628 C.2       10 UNK         0.4903 
     24 O          23.6588  -44.6065  -58.7569 O.2       10 UNK        -0.4860 
     25 CA         23.7770  -46.9971  -58.5718 C.3       9 UNK         0.0227 
     26 CB         22.9952  -47.0864  -59.9004 C.3       9 UNK        -0.1964 
     27 N          24.8239  -48.0255  -58.5230 N.am      9 UNK        -0.4231 
     28 C          25.9279  -48.1198  -59.2765 C.2       9 UNK         0.5014 
     29 O          26.2575  -47.2754  -60.1110 O.2       9 UNK        -0.5270 
     30 CA         26.7850  -49.3938  -59.0899 C.3       8 UNK         0.0284 
     31 CB         28.1158  -49.3256  -59.8628 C.3       8 UNK        -0.1977 
     32 N          27.0640  -49.7317  -57.6879 N.am      8 UNK        -0.4342 
     33 C          26.1874  -50.2314  -56.8056 C.2       8 UNK         0.5039 
     34 O          25.0052  -50.4491  -57.0757 O.2       8 UNK        -0.5547 
     35 CA         26.6906  -50.5068  -55.3785 C.3       7 UNK         0.0281 
     36 CB         27.2575  -51.9311  -55.2723 C.3       7 UNK        -0.1963 
     37 N          27.6924  -49.5436  -54.9169 N.am      7 UNK        -0.4444 
     38 C          27.4612  -48.2400  -54.7037 C.2       7 UNK         0.5104 
     39 O          26.3607  -47.7065  -54.8458 O.2       7 UNK        -0.5100 
     40 CA         28.6762  -47.3850  -54.2947 C.3       6 UNK         0.0396 
     41 CB         29.0035  -47.5912  -52.8073 C.3       6 UNK        -0.1801 
     42 N          29.8585  -47.6655  -55.1158 N.am      6 UNK        -0.4747 
     43 C          29.9133  -47.5026  -56.4483 C.2       6 UNK         0.5012 
     44 O          28.9903  -47.0354  -57.1155 O.2       6 UNK        -0.5003 
     45 CA         31.1713  -48.0321  -57.1698 C.3       5 UNK         0.0782 
     46 C46        32.3323  -47.0141  -57.2132 C.3       11 UNK        -0.0868 
     47 S47        31.9706  -45.5444  -58.2287 S.3       11 UNK        -0.2515 
     48 C48        32.5438  -44.2045  -57.1395 C.3       11 UNK         0.0199 
     49 N          31.6162  -49.2970  -56.5843 N.am      5 UNK        -0.4607 
     50 C          30.9765  -50.4649  -56.7211 C.2       4 UNK         0.5031 
     51 O          29.9619  -50.6134  -57.3997 O.2       4 UNK        -0.5119 
     52 CA         31.5460  -51.6555  -55.9315 C.3       4 UNK         0.0263 
     53 CB         32.6877  -52.3263  -56.7113 C.3       4 UNK        -0.1967 
     54 N          32.0189  -51.2671  -54.5992 N.am      4 UNK        -0.4237 
     55 C          31.2167  -50.8268  -53.6192 C.2       3 UNK         0.4908 
     56 O          29.9921  -50.7698  -53.7189 O.2       3 UNK        -0.5102 
     57 CA         31.8860  -50.3327  -52.3258 C.3       3 UNK         0.0241 
     58 CB         32.0238  -51.4851  -51.3187 C.3       3 UNK        -0.1971 
     59 N          33.1943  -49.7031  -52.5345 N.am      3 UNK        -0.4139 
     60 C          33.4010  -48.5764  -53.2305 C.2       2 UNK         0.5016 
     61 O          32.5140  -47.9640  -53.8293 O.2       2 UNK        -0.5319 
     62 CA         34.8553  -48.0825  -53.3195 C.3       2 UNK         0.0286 
     63 CB         35.3767  -48.2193  -54.7599 C.3       2 UNK        -0.1963 
     64 N          35.0230  -46.6941  -52.8777 N.am      2 UNK        -0.4790 
     65 C          34.7906  -46.2450  -51.6352 C.2       1 UNK         0.5024 
     66 O          34.3441  -46.9517  -50.7272 O.2       1 UNK        -0.4888 
     67 H67        35.4079  -44.0489  -47.4311 H         1 UNK         0.0892 
     68 H68        37.1681  -43.9263  -47.4411 H         1 UNK         0.0892 
     69 H69        36.3925  -45.4854  -47.1474 H         1 UNK         0.0892 
     70 H70        34.5114  -44.0643  -49.4872 H         1 UNK         0.3107 
     71 H71        36.0984  -44.5789  -51.8491 H         1 UNK         0.0773 
     72 H72        34.5365  -42.7719  -51.9698 H         1 UNK         0.0680 
     73 H73        34.0155  -43.9801  -53.0819 H         1 UNK         0.0680 
     74 H74        31.9953  -45.7845  -52.3395 H         1 UNK         0.0650 
     75 H75        30.5602  -45.0493  -51.6784 H         1 UNK         0.0650 
     76 H76        32.8051  -45.1427  -54.5825 H         1 UNK         0.1397 
     77 H77        30.2246  -42.7852  -57.0629 H         1 UNK         0.1363 
     78 H78        29.3656  -43.2362  -52.8834 H         1 UNK         0.1355 
     79 H79        28.3126  -41.7169  -56.1907 H         1 UNK         0.0707 
     80 H80        28.5274  -41.1624  -54.5501 H         1 UNK         0.0707 
     81 H81        26.4973  -45.1709  -55.1884 H         1 UNK         0.1034 
     82 H82        27.8309  -44.6100  -56.1479 H         1 UNK         0.1034 
     83 H83        24.9987  -43.5634  -56.6180 H         1 UNK         0.0482 
     84 H84        25.5931  -41.6040  -57.6032 H         1 UNK         0.3460 
     85 H85        26.6491  -41.5133  -58.9890 H         1 UNK         0.3460 
     86 H86        25.7461  -46.2623  -57.0732 H         1 UNK         0.2989 
     87 H87        23.0819  -47.2507  -57.7704 H         1 UNK         0.0559 
     88 H88        22.6369  -48.0993  -60.0840 H         1 UNK         0.0848 
     89 H89        23.6097  -46.7883  -60.7505 H         1 UNK         0.0848 
     90 H90        22.1205  -46.4350  -59.8879 H         1 UNK         0.0848 
     91 H91        24.6601  -48.7986  -57.8795 H         1 UNK         0.3144 
     92 H92        26.2062  -50.2152  -59.5173 H         1 UNK         0.0727 
     93 H93        28.6757  -50.2567  -59.7749 H         1 UNK         0.0790 
     94 H94        28.7481  -48.5154  -59.4988 H         1 UNK         0.0790 
     95 H95        27.9457  -49.1549  -60.9266 H         1 UNK         0.0790 
     96 H96        28.0235  -49.6119  -57.3840 H         1 UNK         0.3215 
     97 H97        25.8306  -50.4329  -54.7094 H         1 UNK         0.0863 
     98 H98        27.5436  -52.1688  -54.2475 H         1 UNK         0.0808 
     99 H99        28.1365  -52.0639  -55.9037 H         1 UNK         0.0808 
    100 H100       26.5176  -52.6703  -55.5823 H         1 UNK         0.0808 
    101 H101       28.6154  -49.9123  -54.6977 H         1 UNK         0.3118 
    102 H102       28.4318  -46.3323  -54.4406 H         1 UNK         0.0546 
    103 H103       28.2470  -47.1196  -52.1793 H         1 UNK         0.0828 
    104 H104       29.9662  -47.1594  -52.5433 H         1 UNK         0.0828 
    105 H105       29.0331  -48.6454  -52.5343 H         1 UNK         0.0828 
    106 H106       30.6898  -47.9976  -54.6355 H         1 UNK         0.3005 
    107 H107       30.8779  -48.2398  -58.2016 H         1 UNK         0.1257 
    108 H108       33.2167  -47.4847  -57.6456 H         1 UNK         0.0775 
    109 H109       32.6188  -46.7242  -56.2042 H         1 UNK         0.0775 
    110 H110       33.5600  -44.4178  -56.8036 H         1 UNK         0.0840 
    111 H111       32.6097  -43.2855  -57.7240 H         1 UNK         0.0840 
    112 H112       32.4049  -49.2459  -55.9569 H         1 UNK         0.2987 
    113 H113       30.7423  -52.3845  -55.8062 H         1 UNK         0.0785 
    114 H114       33.5348  -51.6538  -56.8522 H         1 UNK         0.0798 
    115 H115       32.3513  -52.6382  -57.7012 H         1 UNK         0.0798 
    116 H116       33.0479  -53.2182  -56.1982 H         1 UNK         0.0798 
    117 H117       33.0137  -51.3026  -54.4316 H         1 UNK         0.3079 
    118 H118       31.2291  -49.5781  -51.8888 H         1 UNK         0.0794 
    119 H119       32.6974  -52.2627  -51.6812 H         1 UNK         0.0786 
    120 H120       31.0571  -51.9541  -51.1284 H         1 UNK         0.0786 
    121 H121       32.4030  -51.1312  -50.3597 H         1 UNK         0.0786 
    122 H122       33.9798  -50.1413  -52.0751 H         1 UNK         0.3032 
    123 H123       35.4771  -48.7065  -52.6735 H         1 UNK         0.1094 
    124 H124       36.4356  -47.9677  -54.8238 H         1 UNK         0.0794 
    125 H125       35.2680  -49.2423  -55.1227 H         1 UNK         0.0794 
    126 H126       34.8370  -47.5693  -55.4492 H         1 UNK         0.0794 
    127 H127       35.3744  -46.0474  -53.5686 H         1 UNK         0.3016 
@<TRIPOS>BOND
     1    1    2 1    
     2    1   67 1    
     3    1   68 1    
     4    1   69 1    
     5    2    3 2    
     6    2    4 am   BACKBONE|DICT|INTERRES
     7    4    5 1    
     8    4   70 1    
     9    5    6 1    
    10    5   65 1    
    11    5   71 1    
    12    6    7 1    
    13    6   72 1    
    14    6   73 1    
    15    7    8 1    
    16    8    9 1    
    17    8   74 1    
    18    8   75 1    
    19    9   10 ar   
    20    9   14 ar   
    21   10   11 ar   
    22   10   76 1    
    23   11   12 ar   
    24   11   48 1    
    25   12   13 ar   
    26   12   77 1    
    27   13   14 ar   
    28   13   15 1    
    29   14   78 1    
    30   15   16 1    
    31   15   79 1    
    32   15   80 1    
    33   16   17 1    
    34   17   18 1    
    35   17   81 1    
    36   17   82 1    
    37   18   19 1    
    38   18   22 1    
    39   18   83 1    
    40   19   20 am   BACKBONE|DICT|INTERRES
    41   19   21 2    
    42   20   84 1    
    43   20   85 1    
    44   22   23 am   BACKBONE|DICT|INTERRES
    45   22   86 1    
    46   23   24 2    
    47   23   25 1    
    48   25   26 1    
    49   25   27 1    
    50   25   87 1    
    51   26   88 1    
    52   26   89 1    
    53   26   90 1    
    54   27   28 am   BACKBONE|DICT|INTERRES
    55   27   91 1    
    56   28   29 2    
    57   28   30 1    
    58   30   31 1    
    59   30   32 1    
    60   30   92 1    
    61   31   93 1    
    62   31   94 1    
    63   31   95 1    
    64   32   33 am   BACKBONE|DICT|INTERRES
    65   32   96 1    
    66   33   34 2    
    67   33   35 1    
    68   35   36 1    
    69   35   37 1    
    70   35   97 1    
    71   36   98 1    
    72   36   99 1    
    73   36  100 1    
    74   37   38 am   BACKBONE|DICT|INTERRES
    75   37  101 1    
    76   38   39 2    
    77   38   40 1    
    78   40   41 1    
    79   40   42 1    
    80   40  102 1    
    81   41  103 1    
    82   41  104 1    
    83   41  105 1    
    84   42   43 am   BACKBONE|DICT|INTERRES
    85   42  106 1    
    86   43   44 2    
    87   43   45 1    
    88   45   46 1    
    89   45   49 1    
    90   45  107 1    
    91   46   47 1    
    92   46  108 1    
    93   46  109 1    
    94   47   48 1    
    95   48  110 1    
    96   48  111 1    
    97   49   50 am   BACKBONE|DICT|INTERRES
    98   49  112 1    
    99   50   51 2    
   100   50   52 1    
   101   52   53 1    
   102   52   54 1    
   103   52  113 1    
   104   53  114 1    
   105   53  115 1    
   106   53  116 1    
   107   54   55 am   BACKBONE|DICT|INTERRES
   108   54  117 1    
   109   55   56 2    
   110   55   57 1    
   111   57   58 1    
   112   57   59 1    
   113   57  118 1    
   114   58  119 1    
   115   58  120 1    
   116   58  121 1    
   117   59   60 am   BACKBONE|DICT|INTERRES
   118   59  122 1    
   119   60   61 2    
   120   60   62 1    
   121   62   63 1    
   122   62   64 1    
   123   62  123 1    
   124   63  124 1    
   125   63  125 1    
   126   63  126 1    
   127   64   65 am   BACKBONE|DICT|INTERRES
   128   64  127 1    
   129   65   66 2    
@<TRIPOS>SUBSTRUCTURE
     1 UNK         1 GROUP             0       ****    0 ROOT    
