@<TRIPOS>MOLECULE
3R134
127   129    1
SMALL
USER_CHARGES


@<TRIPOS>ATOM
      1 CA         33.8182  -45.1709  -50.3123 C.3       0 UNK        -0.1968 
      2 C          34.6759  -45.2512  -51.5650 C.2       0 UNK         0.4852 
      3 O          35.8698  -44.9501  -51.5102 O.2       0 UNK        -0.5359 
      4 N          34.0735  -45.6619  -52.6853 N.am      1 UNK        -0.4300 
      5 CA         34.7427  -45.9299  -53.9588 C.3       1 UNK         0.0863 
      6 C6         33.8743  -45.4489  -55.1510 C.3       11 UNK        -0.0953 
      7 S7         33.7566  -43.6303  -55.1960 S.3       11 UNK        -0.2369 
      8 C8         32.1054  -43.3770  -55.9327 C.3       11 UNK         0.0226 
      9 C9         30.9340  -43.2224  -54.9568 C.ar      11 UNK        -0.0699 
     10 C10        31.0637  -43.3176  -53.5616 C.ar      11 UNK        -0.0804 
     11 C11        29.9624  -43.0942  -52.7263 C.ar      11 UNK        -0.0871 
     12 C12        28.7206  -42.7949  -53.2911 C.ar      11 UNK        -0.1008 
     13 C13        28.5734  -42.6983  -54.6756 C.ar      11 UNK        -0.0735 
     14 C14        29.6803  -42.9192  -55.4990 C.ar      11 UNK        -0.0945 
     15 C15        27.2303  -42.2961  -55.2671 C.3       11 UNK         0.0169 
     16 S16        26.3130  -43.7253  -55.9141 S.3       11 UNK        -0.2669 
     17 C17        26.6712  -43.5931  -57.6994 C.3       11 UNK        -0.0850 
     18 CA         26.5851  -44.9666  -58.4159 C.3       10 UNK         0.0855 
     19 C          26.5988  -44.8611  -59.9685 C.2       10 UNK         0.5543 
     20 N          26.4515  -45.9767  -60.6700 N.am      10 UNK        -0.7343 
     21 O          26.7346  -43.7820  -60.5415 O.2       10 UNK        -0.5027 
     22 N          27.5593  -45.9390  -57.8993 N.am      10 UNK        -0.4495 
     23 C          28.8872  -45.9305  -58.0840 C.2       10 UNK         0.4903 
     24 O          29.5053  -45.0405  -58.6682 O.2       10 UNK        -0.4860 
     25 CA         29.6562  -47.1433  -57.5350 C.3       9 UNK         0.0227 
     26 CB         30.0239  -46.9236  -56.0582 C.3       9 UNK        -0.1964 
     27 N          28.8657  -48.3701  -57.6751 N.am      9 UNK        -0.4231 
     28 C          28.8011  -49.1074  -58.7944 C.2       9 UNK         0.5014 
     29 O          29.5169  -48.9175  -59.7784 O.2       9 UNK        -0.5270 
     30 CA         27.7589  -50.2441  -58.8440 C.3       8 UNK         0.0284 
     31 CB         28.3830  -51.5796  -58.4097 C.3       8 UNK        -0.1977 
     32 N          26.5668  -49.9877  -58.0327 N.am      8 UNK        -0.4342 
     33 C          25.6485  -49.0462  -58.2909 C.2       8 UNK         0.5039 
     34 O          25.6561  -48.3444  -59.3019 O.2       8 UNK        -0.5547 
     35 CA         24.5680  -48.8090  -57.2153 C.3       7 UNK         0.0281 
     36 CB         23.2989  -49.6107  -57.5451 C.3       7 UNK        -0.1963 
     37 N          24.9984  -49.1156  -55.8416 N.am      7 UNK        -0.4444 
     38 C          26.0588  -48.5654  -55.2336 C.2       7 UNK         0.5104 
     39 O          26.7880  -47.7384  -55.7819 O.2       7 UNK        -0.5100 
     40 CA         26.4002  -49.0802  -53.8243 C.3       6 UNK         0.0396 
     41 CB         26.7736  -50.5731  -53.8647 C.3       6 UNK        -0.1801 
     42 N          27.5290  -48.3486  -53.2469 N.am      6 UNK        -0.4747 
     43 C          27.4702  -47.1296  -52.6874 C.2       6 UNK         0.5012 
     44 O          26.4179  -46.5094  -52.5265 O.2       6 UNK        -0.5003 
     45 CA         28.8069  -46.5298  -52.1972 C.3       5 UNK         0.0782 
     46 C46        28.6264  -45.5328  -51.0209 C.3       11 UNK        -0.0868 
     47 S47        30.2076  -44.7783  -50.5056 S.3       11 UNK        -0.2515 
     48 C48        30.1163  -43.1037  -51.2101 C.3       11 UNK         0.0199 
     49 N          29.7302  -47.6214  -51.8663 N.am      5 UNK        -0.4607 
     50 C          30.9770  -47.7416  -52.3286 C.2       4 UNK         0.5031 
     51 O          31.5336  -46.8948  -53.0275 O.2       4 UNK        -0.5119 
     52 CA         31.7519  -49.0175  -51.9543 C.3       4 UNK         0.0263 
     53 CB         30.9580  -50.0327  -51.0983 C.3       4 UNK        -0.1967 
     54 N          32.3042  -49.6557  -53.1524 N.am      4 UNK        -0.4237 
     55 C          31.6209  -50.1552  -54.1951 C.2       3 UNK         0.4908 
     56 O          30.3895  -50.1930  -54.2504 O.2       3 UNK        -0.5102 
     57 CA         32.4569  -50.6818  -55.3784 C.3       3 UNK         0.0241 
     58 CB         31.6685  -50.7037  -56.6996 C.3       3 UNK        -0.1971 
     59 N          33.6675  -49.8783  -55.5607 N.am      3 UNK        -0.4139 
     60 C          34.9222  -50.3035  -55.3655 C.2       2 UNK         0.5016 
     61 O          35.2198  -51.4643  -55.0819 O.2       2 UNK        -0.5319 
     62 CA         36.0410  -49.2480  -55.4771 C.3       2 UNK         0.0286 
     63 CB         36.6939  -49.3069  -56.8678 C.3       2 UNK        -0.1963 
     64 N          35.6173  -47.8661  -55.2029 N.am      2 UNK        -0.4790 
     65 C          35.0908  -47.4332  -54.0469 C.2       1 UNK         0.5024 
     66 O          34.8837  -48.1833  -53.0885 O.2       1 UNK        -0.4888 
     67 H67        32.9827  -45.8686  -50.3610 H         1 UNK         0.0892 
     68 H68        34.4073  -45.4179  -49.4294 H         1 UNK         0.0892 
     69 H69        33.4215  -44.1635  -50.1899 H         1 UNK         0.0892 
     70 H70        33.0989  -45.9569  -52.6636 H         1 UNK         0.3107 
     71 H71        35.6941  -45.3951  -53.9951 H         1 UNK         0.0773 
     72 H72        34.2920  -45.7576  -56.1101 H         1 UNK         0.0680 
     73 H73        32.8748  -45.8820  -55.0963 H         1 UNK         0.0680 
     74 H74        31.8950  -44.1823  -56.6374 H         1 UNK         0.0650 
     75 H75        32.1619  -42.4663  -56.5306 H         1 UNK         0.0650 
     76 H76        32.0197  -43.5406  -53.1112 H         1 UNK         0.1397 
     77 H77        27.8698  -42.6084  -52.6499 H         1 UNK         0.1363 
     78 H78        29.5724  -42.8320  -56.5712 H         1 UNK         0.1355 
     79 H79        26.6158  -41.8130  -54.5058 H         1 UNK         0.0707 
     80 H80        27.3739  -41.5483  -56.0484 H         1 UNK         0.0707 
     81 H81        27.6538  -43.1482  -57.8583 H         1 UNK         0.1034 
     82 H82        25.9497  -42.8938  -58.1260 H         1 UNK         0.1034 
     83 H83        25.6055  -45.3830  -58.1771 H         1 UNK         0.0482 
     84 H84        26.2745  -46.8613  -60.1960 H         1 UNK         0.3460 
     85 H85        26.4576  -45.9365  -61.6762 H         1 UNK         0.3460 
     86 H86        27.1696  -46.6776  -57.3227 H         1 UNK         0.2989 
     87 H87        30.5841  -47.2452  -58.1017 H         1 UNK         0.0559 
     88 H88        30.6383  -46.0333  -55.9377 H         1 UNK         0.0848 
     89 H89        30.5898  -47.7613  -55.6551 H         1 UNK         0.0848 
     90 H90        29.1441  -46.7824  -55.4323 H         1 UNK         0.0848 
     91 H91        28.1991  -48.5485  -56.9325 H         1 UNK         0.3144 
     92 H92        27.4411  -50.3417  -59.8845 H         1 UNK         0.0727 
     93 H93        27.7122  -52.4137  -58.6168 H         1 UNK         0.0790 
     94 H94        28.6083  -51.5908  -57.3433 H         1 UNK         0.0790 
     95 H95        29.3131  -51.7736  -58.9461 H         1 UNK         0.0790 
     96 H96        26.4642  -50.5299  -57.1878 H         1 UNK         0.3215 
     97 H97        24.3178  -47.7462  -57.2456 H         1 UNK         0.0863 
     98 H98        23.4753  -50.6860  -57.4969 H         1 UNK         0.0808 
     99 H99        22.9454  -49.3837  -58.5521 H         1 UNK         0.0808 
    100 H100       22.4868  -49.3707  -56.8585 H         1 UNK         0.0808 
    101 H101       24.4426  -49.7886  -55.3331 H         1 UNK         0.3118 
    102 H102       25.5234  -48.9485  -53.1870 H         1 UNK         0.0546 
    103 H103       27.0409  -50.9398  -52.8734 H         1 UNK         0.0828 
    104 H104       27.6218  -50.7600  -54.5252 H         1 UNK         0.0828 
    105 H105       25.9433  -51.1869  -54.2152 H         1 UNK         0.0828 
    106 H106       28.4421  -48.7608  -53.3903 H         1 UNK         0.3005 
    107 H107       29.1949  -45.9661  -53.0495 H         1 UNK         0.1257 
    108 H108       28.1980  -46.0421  -50.1561 H         1 UNK         0.0775 
    109 H109       27.9232  -44.7410  -51.2827 H         1 UNK         0.0775 
    110 H110       29.2947  -42.5647  -50.7356 H         1 UNK         0.0840 
    111 H111       31.0239  -42.5627  -50.9388 H         1 UNK         0.0840 
    112 H112       29.3509  -48.3592  -51.2905 H         1 UNK         0.2987 
    113 H113       32.6074  -48.6855  -51.3641 H         1 UNK         0.0785 
    114 H114       31.5720  -50.9011  -50.8592 H         1 UNK         0.0798 
    115 H115       30.6504  -49.5943  -50.1481 H         1 UNK         0.0798 
    116 H116       30.0634  -50.3964  -51.6052 H         1 UNK         0.0798 
    117 H117       33.3123  -49.5854  -53.2351 H         1 UNK         0.3079 
    118 H118       32.7181  -51.7126  -55.1306 H         1 UNK         0.0794 
    119 H119       30.7899  -51.3418  -56.6142 H         1 UNK         0.0786 
    120 H120       32.2735  -51.0987  -57.5158 H         1 UNK         0.0786 
    121 H121       31.3304  -49.7083  -56.9860 H         1 UNK         0.0786 
    122 H122       33.5294  -48.9012  -55.7757 H         1 UNK         0.3032 
    123 H123       36.7967  -49.5109  -54.7333 H         1 UNK         0.1094 
    124 H124       35.9943  -49.0230  -57.6551 H         1 UNK         0.0794 
    125 H125       37.5585  -48.6458  -56.9301 H         1 UNK         0.0794 
    126 H126       37.0447  -50.3153  -57.0924 H         1 UNK         0.0794 
    127 H127       35.7772  -47.1961  -55.9421 H         1 UNK         0.3016 
@<TRIPOS>BOND
     1    1    2 1    
     2    1   67 1    
     3    1   68 1    
     4    1   69 1    
     5    2    3 2    
     6    2    4 am   BACKBONE|DICT|INTERRES
     7    4    5 1    
     8    4   70 1    
     9    5    6 1    
    10    5   65 1    
    11    5   71 1    
    12    6    7 1    
    13    6   72 1    
    14    6   73 1    
    15    7    8 1    
    16    8    9 1    
    17    8   74 1    
    18    8   75 1    
    19    9   10 ar   
    20    9   14 ar   
    21   10   11 ar   
    22   10   76 1    
    23   11   12 ar   
    24   11   48 1    
    25   12   13 ar   
    26   12   77 1    
    27   13   14 ar   
    28   13   15 1    
    29   14   78 1    
    30   15   16 1    
    31   15   79 1    
    32   15   80 1    
    33   16   17 1    
    34   17   18 1    
    35   17   81 1    
    36   17   82 1    
    37   18   19 1    
    38   18   22 1    
    39   18   83 1    
    40   19   20 am   BACKBONE|DICT|INTERRES
    41   19   21 2    
    42   20   84 1    
    43   20   85 1    
    44   22   23 am   BACKBONE|DICT|INTERRES
    45   22   86 1    
    46   23   24 2    
    47   23   25 1    
    48   25   26 1    
    49   25   27 1    
    50   25   87 1    
    51   26   88 1    
    52   26   89 1    
    53   26   90 1    
    54   27   28 am   BACKBONE|DICT|INTERRES
    55   27   91 1    
    56   28   29 2    
    57   28   30 1    
    58   30   31 1    
    59   30   32 1    
    60   30   92 1    
    61   31   93 1    
    62   31   94 1    
    63   31   95 1    
    64   32   33 am   BACKBONE|DICT|INTERRES
    65   32   96 1    
    66   33   34 2    
    67   33   35 1    
    68   35   36 1    
    69   35   37 1    
    70   35   97 1    
    71   36   98 1    
    72   36   99 1    
    73   36  100 1    
    74   37   38 am   BACKBONE|DICT|INTERRES
    75   37  101 1    
    76   38   39 2    
    77   38   40 1    
    78   40   41 1    
    79   40   42 1    
    80   40  102 1    
    81   41  103 1    
    82   41  104 1    
    83   41  105 1    
    84   42   43 am   BACKBONE|DICT|INTERRES
    85   42  106 1    
    86   43   44 2    
    87   43   45 1    
    88   45   46 1    
    89   45   49 1    
    90   45  107 1    
    91   46   47 1    
    92   46  108 1    
    93   46  109 1    
    94   47   48 1    
    95   48  110 1    
    96   48  111 1    
    97   49   50 am   BACKBONE|DICT|INTERRES
    98   49  112 1    
    99   50   51 2    
   100   50   52 1    
   101   52   53 1    
   102   52   54 1    
   103   52  113 1    
   104   53  114 1    
   105   53  115 1    
   106   53  116 1    
   107   54   55 am   BACKBONE|DICT|INTERRES
   108   54  117 1    
   109   55   56 2    
   110   55   57 1    
   111   57   58 1    
   112   57   59 1    
   113   57  118 1    
   114   58  119 1    
   115   58  120 1    
   116   58  121 1    
   117   59   60 am   BACKBONE|DICT|INTERRES
   118   59  122 1    
   119   60   61 2    
   120   60   62 1    
   121   62   63 1    
   122   62   64 1    
   123   62  123 1    
   124   63  124 1    
   125   63  125 1    
   126   63  126 1    
   127   64   65 am   BACKBONE|DICT|INTERRES
   128   64  127 1    
   129   65   66 2    
@<TRIPOS>SUBSTRUCTURE
     1 UNK         1 GROUP             0       ****    0 ROOT    
