@<TRIPOS>MOLECULE
3R134
127   129    1
SMALL
USER_CHARGES


@<TRIPOS>ATOM
      1 CA         34.0276  -47.1452  -56.1841 C.3       0 UNK        -0.1968 
      2 C          33.8213  -46.6718  -54.7541 C.2       0 UNK         0.4852 
      3 O          33.3448  -47.4387  -53.9172 O.2       0 UNK        -0.5359 
      4 N          34.1920  -45.4177  -54.4604 N.am      1 UNK        -0.4300 
      5 CA         33.9910  -44.7725  -53.1560 C.3       1 UNK         0.0863 
      6 C6         34.2380  -43.2418  -53.2316 C.3       11 UNK        -0.0953 
      7 S7         33.0792  -42.3098  -52.1748 S.3       11 UNK        -0.2369 
      8 C8         31.7700  -41.8570  -53.3625 C.3       11 UNK         0.0226 
      9 C9         31.1191  -43.0773  -54.0023 C.ar      11 UNK        -0.0699 
     10 C10        30.3413  -43.9460  -53.2301 C.ar      11 UNK        -0.0804 
     11 C11        29.7671  -45.0851  -53.8023 C.ar      11 UNK        -0.0871 
     12 C12        29.9603  -45.3374  -55.1618 C.ar      11 UNK        -0.1008 
     13 C13        30.7280  -44.4748  -55.9511 C.ar      11 UNK        -0.0735 
     14 C14        31.3064  -43.3463  -55.3623 C.ar      11 UNK        -0.0945 
     15 C15        30.9642  -44.7687  -57.4294 C.3       11 UNK         0.0169 
     16 S16        29.4641  -45.3182  -58.3083 S.3       11 UNK        -0.2669 
     17 C17        28.4803  -43.7784  -58.3740 C.3       11 UNK        -0.0850 
     18 CA         27.5338  -43.5621  -57.1598 C.3       10 UNK         0.0855 
     19 C          26.6470  -42.3007  -57.3818 C.2       10 UNK         0.5543 
     20 N          25.3308  -42.4230  -57.5195 N.am      10 UNK        -0.7343 
     21 O          27.1675  -41.1893  -57.4343 O.2       10 UNK        -0.5027 
     22 N          26.7872  -44.7813  -56.8196 N.am      10 UNK        -0.4495 
     23 C          26.1198  -44.9925  -55.6783 C.2       10 UNK         0.4903 
     24 O          26.1198  -44.2096  -54.7277 O.2       10 UNK        -0.4860 
     25 CA         25.3146  -46.3049  -55.5933 C.3       9 UNK         0.0227 
     26 CB         24.1197  -46.2084  -54.6219 C.3       9 UNK        -0.1964 
     27 N          24.8839  -46.8129  -56.9044 N.am      9 UNK        -0.4231 
     28 C          24.0922  -46.1967  -57.8001 C.2       9 UNK         0.5014 
     29 O          23.6041  -45.0799  -57.6176 O.2       9 UNK        -0.5270 
     30 CA         23.8408  -46.8981  -59.1524 C.3       8 UNK         0.0284 
     31 CB         24.4528  -46.0752  -60.3001 C.3       8 UNK        -0.1977 
     32 N          24.3704  -48.2624  -59.2245 N.am      8 UNK        -0.4342 
     33 C          23.8340  -49.3378  -58.6319 C.2       8 UNK         0.5039 
     34 O          22.7594  -49.3216  -58.0311 O.2       8 UNK        -0.5547 
     35 CA         24.6500  -50.6464  -58.6875 C.3       7 UNK         0.0281 
     36 CB         24.1117  -51.5654  -59.7963 C.3       7 UNK        -0.1963 
     37 N          26.0991  -50.4645  -58.8705 N.am      7 UNK        -0.4444 
     38 C          26.9030  -49.7748  -58.0488 C.2       7 UNK         0.5104 
     39 O          26.4989  -49.1696  -57.0529 O.2       7 UNK        -0.5100 
     40 CA         28.3869  -49.6903  -58.4502 C.3       6 UNK         0.0396 
     41 CB         28.5603  -48.7644  -59.6664 C.3       6 UNK        -0.1801 
     42 N          29.2049  -49.1763  -57.3492 N.am      6 UNK        -0.4747 
     43 C          29.5402  -49.8839  -56.2617 C.2       6 UNK         0.5012 
     44 O          29.3038  -51.0878  -56.1258 O.2       6 UNK        -0.5003 
     45 CA         30.1971  -49.0978  -55.1083 C.3       5 UNK         0.0782 
     46 C46        29.1054  -48.6362  -54.1078 C.3       11 UNK        -0.0868 
     47 S47        29.7551  -47.6451  -52.7149 S.3       11 UNK        -0.2515 
     48 C48        28.9324  -46.0345  -52.9540 C.3       11 UNK         0.0199 
     49 N          31.2510  -49.8648  -54.4401 N.am      5 UNK        -0.4607 
     50 C          32.3747  -50.3213  -55.0091 C.2       4 UNK         0.5031 
     51 O          32.6278  -50.2236  -56.2111 O.2       4 UNK        -0.5119 
     52 CA         33.4073  -50.9341  -54.0502 C.3       4 UNK         0.0263 
     53 CB         34.7931  -51.1350  -54.6938 C.3       4 UNK        -0.1967 
     54 N          33.5382  -50.0789  -52.8694 N.am      4 UNK        -0.4237 
     55 C          33.6602  -50.5166  -51.6109 C.2       3 UNK         0.4908 
     56 O          33.6934  -51.7114  -51.3080 O.2       3 UNK        -0.5102 
     57 CA         33.7428  -49.4410  -50.5072 C.3       3 UNK         0.0241 
     58 CB         34.1016  -50.0258  -49.1240 C.3       3 UNK        -0.1971 
     59 N          34.6356  -48.3220  -50.8336 N.am      3 UNK        -0.4139 
     60 C          35.9420  -48.3635  -51.1370 C.2       2 UNK         0.5016 
     61 O          36.5974  -49.4049  -51.2059 O.2       2 UNK        -0.5319 
     62 CA         36.6296  -47.0049  -51.4096 C.3       2 UNK         0.0286 
     63 CB         38.0554  -47.1645  -51.9711 C.3       2 UNK        -0.1963 
     64 N          35.8575  -46.1597  -52.3264 N.am      2 UNK        -0.4790 
     65 C          34.7729  -45.4405  -52.0024 C.2       1 UNK         0.5024 
     66 O          34.3494  -45.3546  -50.8491 O.2       1 UNK        -0.4888 
     67 H67        33.0797  -47.4752  -56.6074 H         1 UNK         0.0892 
     68 H68        34.4292  -46.3589  -56.8228 H         1 UNK         0.0892 
     69 H69        34.7176  -47.9880  -56.2045 H         1 UNK         0.0892 
     70 H70        34.5956  -44.8375  -55.1816 H         1 UNK         0.3107 
     71 H71        32.9386  -44.9418  -52.9212 H         1 UNK         0.0773 
     72 H72        35.2617  -42.9847  -52.9526 H         1 UNK         0.0680 
     73 H73        34.1182  -42.8775  -54.2531 H         1 UNK         0.0680 
     74 H74        32.1912  -41.1966  -54.1221 H         1 UNK         0.0650 
     75 H75        31.0072  -41.2767  -52.8416 H         1 UNK         0.0650 
     76 H76        30.2016  -43.7402  -52.1776 H         1 UNK         0.1397 
     77 H77        29.5030  -46.2055  -55.6097 H         1 UNK         0.1363 
     78 H78        31.9115  -42.6797  -55.9612 H         1 UNK         0.1355 
     79 H79        31.7171  -45.5530  -57.5080 H         1 UNK         0.0707 
     80 H80        31.3747  -43.8965  -57.9404 H         1 UNK         0.0707 
     81 H81        27.8995  -43.8105  -59.2979 H         1 UNK         0.1034 
     82 H82        29.1572  -42.9285  -58.4807 H         1 UNK         0.1034 
     83 H83        28.1587  -43.3304  -56.2959 H         1 UNK         0.0482 
     84 H84        24.7719  -41.5969  -57.6618 H         1 UNK         0.3460 
     85 H85        24.8849  -43.3309  -57.4739 H         1 UNK         0.3460 
     86 H86        26.7447  -45.4854  -57.5395 H         1 UNK         0.2989 
     87 H87        26.0019  -47.0520  -55.1943 H         1 UNK         0.0559 
     88 H88        24.4541  -45.9734  -53.6107 H         1 UNK         0.0848 
     89 H89        23.5741  -47.1506  -54.5699 H         1 UNK         0.0848 
     90 H90        23.4174  -45.4296  -54.9206 H         1 UNK         0.0848 
     91 H91        25.2722  -47.7222  -57.1447 H         1 UNK         0.3144 
     92 H92        22.7593  -46.9392  -59.2979 H         1 UNK         0.0727 
     93 H93        25.5363  -45.9910  -60.2062 H         1 UNK         0.0790 
     94 H94        24.0487  -45.0618  -60.3156 H         1 UNK         0.0790 
     95 H95        24.2324  -46.5213  -61.2702 H         1 UNK         0.0790 
     96 H96        25.2450  -48.3835  -59.7135 H         1 UNK         0.3215 
     97 H97        24.5066  -51.1490  -57.7284 H         1 UNK         0.0863 
     98 H98        24.6015  -52.5393  -59.7794 H         1 UNK         0.0808 
     99 H99        24.2565  -51.1318  -60.7867 H         1 UNK         0.0808 
    100 H100       23.0423  -51.7425  -59.6720 H         1 UNK         0.0808 
    101 H101       26.5104  -50.9237  -59.6712 H         1 UNK         0.3118 
    102 H102       28.7365  -50.6908  -58.7138 H         1 UNK         0.0546 
    103 H103       28.1489  -47.7714  -59.4823 H         1 UNK         0.0828 
    104 H104       28.0558  -49.1663  -60.5457 H         1 UNK         0.0828 
    105 H105       29.6117  -48.6461  -59.9295 H         1 UNK         0.0828 
    106 H106       29.4037  -48.1868  -57.3755 H         1 UNK         0.3005 
    107 H107       30.6864  -48.2175  -55.5292 H         1 UNK         0.1257 
    108 H108       28.5963  -49.5028  -53.6811 H         1 UNK         0.0775 
    109 H109       28.3302  -48.0699  -54.6268 H         1 UNK         0.0775 
    110 H110       27.9461  -46.1656  -53.4000 H         1 UNK         0.0840 
    111 H111       28.7541  -45.5984  -51.9700 H         1 UNK         0.0840 
    112 H112       31.1403  -49.9759  -53.4435 H         1 UNK         0.2987 
    113 H113       33.0148  -51.9121  -53.7641 H         1 UNK         0.0785 
    114 H114       34.7311  -51.7856  -55.5670 H         1 UNK         0.0798 
    115 H115       35.4898  -51.5968  -53.9941 H         1 UNK         0.0798 
    116 H116       35.2245  -50.1874  -55.0176 H         1 UNK         0.0798 
    117 H117       33.4881  -49.0762  -53.0569 H         1 UNK         0.3079 
    118 H118       32.7411  -49.0150  -50.4326 H         1 UNK         0.0794 
    119 H119       34.1099  -49.2522  -48.3562 H         1 UNK         0.0786 
    120 H120       35.0821  -50.5033  -49.1298 H         1 UNK         0.0786 
    121 H121       33.3746  -50.7780  -48.8151 H         1 UNK         0.0786 
    122 H122       34.2089  -47.4018  -50.8162 H         1 UNK         0.3032 
    123 H123       36.7087  -46.4958  -50.4461 H         1 UNK         0.1094 
    124 H124       38.0561  -47.6919  -52.9258 H         1 UNK         0.0794 
    125 H125       38.5343  -46.1966  -52.1206 H         1 UNK         0.0794 
    126 H126       38.6861  -47.7309  -51.2844 H         1 UNK         0.0794 
    127 H127       36.1068  -46.2139  -53.3035 H         1 UNK         0.3016 
@<TRIPOS>BOND
     1    1    2 1    
     2    1   67 1    
     3    1   68 1    
     4    1   69 1    
     5    2    3 2    
     6    2    4 am   BACKBONE|DICT|INTERRES
     7    4    5 1    
     8    4   70 1    
     9    5    6 1    
    10    5   65 1    
    11    5   71 1    
    12    6    7 1    
    13    6   72 1    
    14    6   73 1    
    15    7    8 1    
    16    8    9 1    
    17    8   74 1    
    18    8   75 1    
    19    9   10 ar   
    20    9   14 ar   
    21   10   11 ar   
    22   10   76 1    
    23   11   12 ar   
    24   11   48 1    
    25   12   13 ar   
    26   12   77 1    
    27   13   14 ar   
    28   13   15 1    
    29   14   78 1    
    30   15   16 1    
    31   15   79 1    
    32   15   80 1    
    33   16   17 1    
    34   17   18 1    
    35   17   81 1    
    36   17   82 1    
    37   18   19 1    
    38   18   22 1    
    39   18   83 1    
    40   19   20 am   BACKBONE|DICT|INTERRES
    41   19   21 2    
    42   20   84 1    
    43   20   85 1    
    44   22   23 am   BACKBONE|DICT|INTERRES
    45   22   86 1    
    46   23   24 2    
    47   23   25 1    
    48   25   26 1    
    49   25   27 1    
    50   25   87 1    
    51   26   88 1    
    52   26   89 1    
    53   26   90 1    
    54   27   28 am   BACKBONE|DICT|INTERRES
    55   27   91 1    
    56   28   29 2    
    57   28   30 1    
    58   30   31 1    
    59   30   32 1    
    60   30   92 1    
    61   31   93 1    
    62   31   94 1    
    63   31   95 1    
    64   32   33 am   BACKBONE|DICT|INTERRES
    65   32   96 1    
    66   33   34 2    
    67   33   35 1    
    68   35   36 1    
    69   35   37 1    
    70   35   97 1    
    71   36   98 1    
    72   36   99 1    
    73   36  100 1    
    74   37   38 am   BACKBONE|DICT|INTERRES
    75   37  101 1    
    76   38   39 2    
    77   38   40 1    
    78   40   41 1    
    79   40   42 1    
    80   40  102 1    
    81   41  103 1    
    82   41  104 1    
    83   41  105 1    
    84   42   43 am   BACKBONE|DICT|INTERRES
    85   42  106 1    
    86   43   44 2    
    87   43   45 1    
    88   45   46 1    
    89   45   49 1    
    90   45  107 1    
    91   46   47 1    
    92   46  108 1    
    93   46  109 1    
    94   47   48 1    
    95   48  110 1    
    96   48  111 1    
    97   49   50 am   BACKBONE|DICT|INTERRES
    98   49  112 1    
    99   50   51 2    
   100   50   52 1    
   101   52   53 1    
   102   52   54 1    
   103   52  113 1    
   104   53  114 1    
   105   53  115 1    
   106   53  116 1    
   107   54   55 am   BACKBONE|DICT|INTERRES
   108   54  117 1    
   109   55   56 2    
   110   55   57 1    
   111   57   58 1    
   112   57   59 1    
   113   57  118 1    
   114   58  119 1    
   115   58  120 1    
   116   58  121 1    
   117   59   60 am   BACKBONE|DICT|INTERRES
   118   59  122 1    
   119   60   61 2    
   120   60   62 1    
   121   62   63 1    
   122   62   64 1    
   123   62  123 1    
   124   63  124 1    
   125   63  125 1    
   126   63  126 1    
   127   64   65 am   BACKBONE|DICT|INTERRES
   128   64  127 1    
   129   65   66 2    
@<TRIPOS>SUBSTRUCTURE
     1 UNK         1 GROUP             0       ****    0 ROOT    
