@<TRIPOS>MOLECULE
3R134
127   129    1
SMALL
USER_CHARGES


@<TRIPOS>ATOM
      1 CA         35.0566  -46.1835  -50.3139 C.3       0 UNK        -0.1968 
      2 C          34.6026  -46.8071  -51.6251 C.2       0 UNK         0.4852 
      3 O          33.7824  -47.7233  -51.6105 O.2       0 UNK        -0.5359 
      4 N          35.1246  -46.3134  -52.7561 N.am      1 UNK        -0.4300 
      5 CA         34.8332  -46.7885  -54.1136 C.3       1 UNK         0.0863 
      6 C6         33.3370  -46.5948  -54.5057 C.3       11 UNK        -0.0953 
      7 S7         33.1269  -46.1197  -56.2523 S.3       11 UNK        -0.2369 
      8 C8         33.3391  -44.3099  -56.1716 C.3       11 UNK         0.0226 
      9 C9         32.0951  -43.6052  -55.6490 C.ar      11 UNK        -0.0699 
     10 C10        31.9615  -43.3197  -54.2868 C.ar      11 UNK        -0.0804 
     11 C11        30.8035  -42.7079  -53.8003 C.ar      11 UNK        -0.0871 
     12 C12        29.7973  -42.3309  -54.6943 C.ar      11 UNK        -0.1008 
     13 C13        29.9264  -42.5912  -56.0613 C.ar      11 UNK        -0.0735 
     14 C14        31.0773  -43.2311  -56.5320 C.ar      11 UNK        -0.0945 
     15 C15        28.8218  -42.1770  -57.0233 C.3       11 UNK         0.0169 
     16 S16        27.3083  -43.1498  -56.7574 S.3       11 UNK        -0.2669 
     17 C17        26.2314  -42.4644  -58.0608 C.3       11 UNK        -0.0850 
     18 CA         24.9380  -43.2981  -58.2575 C.3       10 UNK         0.0855 
     19 C          23.9686  -42.6040  -59.2580 C.2       10 UNK         0.5543 
     20 N          23.6146  -43.2186  -60.3803 N.am      10 UNK        -0.7343 
     21 O          23.5234  -41.4871  -59.0054 O.2       10 UNK        -0.5027 
     22 N          25.2493  -44.6986  -58.5822 N.am      10 UNK        -0.4495 
     23 C          24.4604  -45.7513  -58.3501 C.2       10 UNK         0.4903 
     24 O          23.3413  -45.6659  -57.8439 O.2       10 UNK        -0.4860 
     25 CA         25.0048  -47.1440  -58.7237 C.3       9 UNK         0.0227 
     26 CB         24.5740  -47.5424  -60.1488 C.3       9 UNK        -0.1964 
     27 N          26.4527  -47.3256  -58.5242 N.am      9 UNK        -0.4231 
     28 C          27.4789  -46.7516  -59.1754 C.2       9 UNK         0.5014 
     29 O          27.3295  -45.9361  -60.0867 O.2       9 UNK        -0.5270 
     30 CA         28.9120  -47.1023  -58.7295 C.3       8 UNK         0.0284 
     31 CB         29.6850  -45.8378  -58.3246 C.3       8 UNK        -0.1977 
     32 N          28.9483  -48.0496  -57.6146 N.am      8 UNK        -0.4342 
     33 C          28.9399  -49.3835  -57.7468 C.2       8 UNK         0.5039 
     34 O          28.9751  -49.9627  -58.8329 O.2       8 UNK        -0.5547 
     35 CA         28.8445  -50.2186  -56.4564 C.3       7 UNK         0.0281 
     36 CB         30.2342  -50.7379  -56.0510 C.3       7 UNK        -0.1963 
     37 N          28.2364  -49.4909  -55.3353 N.am      7 UNK        -0.4444 
     38 C          26.9556  -49.0857  -55.3049 C.2       7 UNK         0.5104 
     39 O          26.1577  -49.3089  -56.2153 O.2       7 UNK        -0.5100 
     40 CA         26.4781  -48.2600  -54.0936 C.3       6 UNK         0.0396 
     41 CB         25.7200  -49.1586  -53.1042 C.3       6 UNK        -0.1801 
     42 N          27.5418  -47.5517  -53.3775 N.am      6 UNK        -0.4747 
     43 C          28.3644  -46.6320  -53.9055 C.2       6 UNK         0.5012 
     44 O          28.2996  -46.2551  -55.0750 O.2       6 UNK        -0.5003 
     45 CA         29.4991  -46.1161  -52.9925 C.3       5 UNK         0.0782 
     46 C46        29.0503  -44.8470  -52.2268 C.3       11 UNK        -0.0868 
     47 S47        30.4547  -44.0401  -51.3809 S.3       11 UNK        -0.2515 
     48 C48        30.6273  -42.4762  -52.3061 C.3       11 UNK         0.0199 
     49 N          30.0108  -47.1473  -52.0716 N.am      5 UNK        -0.4607 
     50 C          30.4746  -48.3495  -52.4340 C.2       4 UNK         0.5031 
     51 O          30.5074  -48.7459  -53.6023 O.2       4 UNK        -0.5119 
     52 CA         30.9187  -49.2960  -51.3147 C.3       4 UNK         0.0263 
     53 CB         29.7068  -49.9546  -50.6314 C.3       4 UNK        -0.1967 
     54 N          31.7505  -50.3142  -51.9409 N.am      4 UNK        -0.4237 
     55 C          32.7335  -51.0146  -51.3679 C.2       3 UNK         0.4908 
     56 O          32.9949  -50.9935  -50.1647 O.2       3 UNK        -0.5102 
     57 CA         33.5836  -51.8631  -52.3199 C.3       3 UNK         0.0241 
     58 CB         32.8290  -53.1464  -52.7254 C.3       3 UNK        -0.1971 
     59 N          33.9527  -51.0637  -53.4910 N.am      3 UNK        -0.4139 
     60 C          34.8607  -51.3902  -54.4182 C.2       2 UNK         0.5016 
     61 O          35.5031  -52.4412  -54.4120 O.2       2 UNK        -0.5319 
     62 CA         35.0970  -50.3758  -55.5546 C.3       2 UNK         0.0286 
     63 CB         34.3311  -50.8012  -56.8182 C.3       2 UNK        -0.1963 
     64 N          34.7233  -48.9977  -55.2147 N.am      2 UNK        -0.4790 
     65 C          35.3832  -48.2169  -54.3475 C.2       1 UNK         0.5024 
     66 O          36.4058  -48.5800  -53.7609 O.2       1 UNK        -0.4888 
     67 H67        35.7880  -45.3908  -50.4694 H         1 UNK         0.0892 
     68 H68        34.2022  -45.7589  -49.7873 H         1 UNK         0.0892 
     69 H69        35.5082  -46.9424  -49.6756 H         1 UNK         0.0892 
     70 H70        35.8254  -45.5880  -52.6967 H         1 UNK         0.3107 
     71 H71        35.4395  -46.1469  -54.7546 H         1 UNK         0.0773 
     72 H72        32.7455  -47.4879  -54.3035 H         1 UNK         0.0680 
     73 H73        32.8767  -45.8281  -53.8866 H         1 UNK         0.0680 
     74 H74        33.5722  -43.9435  -57.1724 H         1 UNK         0.0650 
     75 H75        34.2040  -44.0670  -55.5526 H         1 UNK         0.0650 
     76 H76        32.7455  -43.5965  -53.5955 H         1 UNK         0.1397 
     77 H77        28.8992  -41.8519  -54.3282 H         1 UNK         0.1363 
     78 H78        31.1822  -43.4434  -57.5869 H         1 UNK         0.1355 
     79 H79        28.6009  -41.1174  -56.8864 H         1 UNK         0.0707 
     80 H80        29.1483  -42.2980  -58.0574 H         1 UNK         0.0707 
     81 H81        25.9888  -41.4353  -57.7881 H         1 UNK         0.1034 
     82 H82        26.7918  -42.4115  -58.9962 H         1 UNK         0.1034 
     83 H83        24.4116  -43.2998  -57.3010 H         1 UNK         0.0482 
     84 H84        23.9760  -44.1345  -60.5923 H         1 UNK         0.3460 
     85 H85        22.9829  -42.7613  -61.0188 H         1 UNK         0.3460 
     86 H86        26.1332  -44.8715  -59.0514 H         1 UNK         0.2989 
     87 H87        24.5340  -47.8485  -58.0362 H         1 UNK         0.0559 
     88 H88        23.4884  -47.5087  -60.2496 H         1 UNK         0.0848 
     89 H89        24.8893  -48.5579  -60.3884 H         1 UNK         0.0848 
     90 H90        24.9884  -46.8755  -60.9052 H         1 UNK         0.0848 
     91 H91        26.6829  -47.9677  -57.7742 H         1 UNK         0.3144 
     92 H92        29.4165  -47.5391  -59.5938 H         1 UNK         0.0727 
     93 H93        29.2401  -45.3593  -57.4521 H         1 UNK         0.0790 
     94 H94        29.6965  -45.1026  -59.1301 H         1 UNK         0.0790 
     95 H95        30.7223  -46.0696  -58.0854 H         1 UNK         0.0790 
     96 H96        28.8970  -47.6475  -56.6844 H         1 UNK         0.3215 
     97 H97        28.2099  -51.0810  -56.6720 H         1 UNK         0.0863 
     98 H98        30.1907  -51.3266  -55.1347 H         1 UNK         0.0808 
     99 H99        30.9396  -49.9208  -55.8962 H         1 UNK         0.0808 
    100 H100       30.6496  -51.3793  -56.8293 H         1 UNK         0.0808 
    101 H101       28.8603  -49.2266  -54.5779 H         1 UNK         0.3118 
    102 H102       25.7842  -47.5064  -54.4719 H         1 UNK         0.0546 
    103 H103       26.3708  -49.9168  -52.6667 H         1 UNK         0.0828 
    104 H104       24.9001  -49.6806  -53.6000 H         1 UNK         0.0828 
    105 H105       25.2847  -48.5776  -52.2911 H         1 UNK         0.0828 
    106 H106       27.6873  -47.8125  -52.4131 H         1 UNK         0.3005 
    107 H107       30.3199  -45.8428  -53.6600 H         1 UNK         0.1257 
    108 H108       28.2963  -45.0976  -51.4784 H         1 UNK         0.0775 
    109 H109       28.5724  -44.1326  -52.8993 H         1 UNK         0.0775 
    110 H110       29.7553  -41.8504  -52.1095 H         1 UNK         0.0840 
    111 H111       31.4890  -41.9288  -51.9214 H         1 UNK         0.0840 
    112 H112       30.0307  -46.8903  -51.0953 H         1 UNK         0.2987 
    113 H113       31.5068  -48.7355  -50.5850 H         1 UNK         0.0785 
    114 H114       29.0717  -49.2091  -50.1517 H         1 UNK         0.0798 
    115 H115       30.0218  -50.6549  -49.8577 H         1 UNK         0.0798 
    116 H116       29.0900  -50.5021  -51.3455 H         1 UNK         0.0798 
    117 H117       31.5958  -50.3803  -52.9395 H         1 UNK         0.3079 
    118 H118       34.4987  -52.1410  -51.7926 H         1 UNK         0.0794 
    119 H119       33.4638  -53.8222  -53.2981 H         1 UNK         0.0786 
    120 H120       31.9484  -52.9249  -53.3294 H         1 UNK         0.0786 
    121 H121       32.4925  -53.6954  -51.8449 H         1 UNK         0.0786 
    122 H122       33.5501  -50.1377  -53.5378 H         1 UNK         0.3032 
    123 H123       36.1658  -50.3915  -55.7808 H         1 UNK         0.1094 
    124 H124       33.2526  -50.7945  -56.6590 H         1 UNK         0.0794 
    125 H125       34.5517  -50.1419  -57.6579 H         1 UNK         0.0794 
    126 H126       34.6087  -51.8119  -57.1212 H         1 UNK         0.0794 
    127 H127       33.9180  -48.6098  -55.6880 H         1 UNK         0.3016 
@<TRIPOS>BOND
     1    1    2 1    
     2    1   67 1    
     3    1   68 1    
     4    1   69 1    
     5    2    3 2    
     6    2    4 am   BACKBONE|DICT|INTERRES
     7    4    5 1    
     8    4   70 1    
     9    5    6 1    
    10    5   65 1    
    11    5   71 1    
    12    6    7 1    
    13    6   72 1    
    14    6   73 1    
    15    7    8 1    
    16    8    9 1    
    17    8   74 1    
    18    8   75 1    
    19    9   10 ar   
    20    9   14 ar   
    21   10   11 ar   
    22   10   76 1    
    23   11   12 ar   
    24   11   48 1    
    25   12   13 ar   
    26   12   77 1    
    27   13   14 ar   
    28   13   15 1    
    29   14   78 1    
    30   15   16 1    
    31   15   79 1    
    32   15   80 1    
    33   16   17 1    
    34   17   18 1    
    35   17   81 1    
    36   17   82 1    
    37   18   19 1    
    38   18   22 1    
    39   18   83 1    
    40   19   20 am   BACKBONE|DICT|INTERRES
    41   19   21 2    
    42   20   84 1    
    43   20   85 1    
    44   22   23 am   BACKBONE|DICT|INTERRES
    45   22   86 1    
    46   23   24 2    
    47   23   25 1    
    48   25   26 1    
    49   25   27 1    
    50   25   87 1    
    51   26   88 1    
    52   26   89 1    
    53   26   90 1    
    54   27   28 am   BACKBONE|DICT|INTERRES
    55   27   91 1    
    56   28   29 2    
    57   28   30 1    
    58   30   31 1    
    59   30   32 1    
    60   30   92 1    
    61   31   93 1    
    62   31   94 1    
    63   31   95 1    
    64   32   33 am   BACKBONE|DICT|INTERRES
    65   32   96 1    
    66   33   34 2    
    67   33   35 1    
    68   35   36 1    
    69   35   37 1    
    70   35   97 1    
    71   36   98 1    
    72   36   99 1    
    73   36  100 1    
    74   37   38 am   BACKBONE|DICT|INTERRES
    75   37  101 1    
    76   38   39 2    
    77   38   40 1    
    78   40   41 1    
    79   40   42 1    
    80   40  102 1    
    81   41  103 1    
    82   41  104 1    
    83   41  105 1    
    84   42   43 am   BACKBONE|DICT|INTERRES
    85   42  106 1    
    86   43   44 2    
    87   43   45 1    
    88   45   46 1    
    89   45   49 1    
    90   45  107 1    
    91   46   47 1    
    92   46  108 1    
    93   46  109 1    
    94   47   48 1    
    95   48  110 1    
    96   48  111 1    
    97   49   50 am   BACKBONE|DICT|INTERRES
    98   49  112 1    
    99   50   51 2    
   100   50   52 1    
   101   52   53 1    
   102   52   54 1    
   103   52  113 1    
   104   53  114 1    
   105   53  115 1    
   106   53  116 1    
   107   54   55 am   BACKBONE|DICT|INTERRES
   108   54  117 1    
   109   55   56 2    
   110   55   57 1    
   111   57   58 1    
   112   57   59 1    
   113   57  118 1    
   114   58  119 1    
   115   58  120 1    
   116   58  121 1    
   117   59   60 am   BACKBONE|DICT|INTERRES
   118   59  122 1    
   119   60   61 2    
   120   60   62 1    
   121   62   63 1    
   122   62   64 1    
   123   62  123 1    
   124   63  124 1    
   125   63  125 1    
   126   63  126 1    
   127   64   65 am   BACKBONE|DICT|INTERRES
   128   64  127 1    
   129   65   66 2    
@<TRIPOS>SUBSTRUCTURE
     1 UNK         1 GROUP             0       ****    0 ROOT    
