@<TRIPOS>MOLECULE
3R134
127   129    1
SMALL
USER_CHARGES


@<TRIPOS>ATOM
      1 CA         35.9739  -42.5713  -51.9831 C.3       0 UNK        -0.1968 
      2 C          35.7695  -43.6341  -50.9064 C.2       0 UNK         0.4852 
      3 O          35.7804  -43.3029  -49.7215 O.2       0 UNK        -0.5359 
      4 N          35.5887  -44.9123  -51.2582 N.am      1 UNK        -0.4300 
      5 CA         35.5926  -45.4736  -52.6071 C.3       1 UNK         0.0863 
      6 C6         34.2000  -45.3620  -53.2819 C.3       11 UNK        -0.0953 
      7 S7         34.2947  -45.4620  -55.0999 S.3       11 UNK        -0.2369 
      8 C8         32.6402  -46.0931  -55.5172 C.3       11 UNK         0.0226 
      9 C9         31.5676  -45.0253  -55.3662 C.ar      11 UNK        -0.0699 
     10 C10        30.9211  -44.8352  -54.1416 C.ar      11 UNK        -0.0804 
     11 C11        29.9195  -43.8656  -54.0055 C.ar      11 UNK        -0.0871 
     12 C12        29.5774  -43.0782  -55.1103 C.ar      11 UNK        -0.1008 
     13 C13        30.2169  -43.2605  -56.3401 C.ar      11 UNK        -0.0735 
     14 C14        31.2117  -44.2338  -56.4603 C.ar      11 UNK        -0.0945 
     15 C15        29.8571  -42.3980  -57.5400 C.3       11 UNK         0.0169 
     16 S16        28.6012  -43.1963  -58.5885 S.3       11 UNK        -0.2669 
     17 C17        27.0409  -42.6577  -57.8039 C.3       11 UNK        -0.0850 
     18 CA         26.3945  -43.7305  -56.8794 C.3       10 UNK         0.0855 
     19 C          25.1373  -43.1993  -56.1285 C.2       10 UNK         0.5543 
     20 N          24.1389  -44.0277  -55.8461 N.am      10 UNK        -0.7343 
     21 O          25.0757  -42.0273  -55.7653 O.2       10 UNK        -0.5027 
     22 N          26.2034  -45.0431  -57.5169 N.am      10 UNK        -0.4495 
     23 C          25.5052  -45.3253  -58.6243 C.2       10 UNK         0.4903 
     24 O          24.9307  -44.4827  -59.3154 O.2       10 UNK        -0.4860 
     25 CA         25.4142  -46.8204  -58.9944 C.3       9 UNK         0.0227 
     26 CB         25.0075  -47.0652  -60.4633 C.3       9 UNK        -0.1964 
     27 N          26.6275  -47.5644  -58.6312 N.am      9 UNK        -0.4231 
     28 C          27.8567  -47.4485  -59.1579 C.2       9 UNK         0.5014 
     29 O          28.1274  -46.7550  -60.1388 O.2       9 UNK        -0.5270 
     30 CA         28.9933  -48.2261  -58.4637 C.3       8 UNK         0.0284 
     31 CB         29.8626  -47.2675  -57.6360 C.3       8 UNK        -0.1977 
     32 N          28.5303  -49.3073  -57.5898 N.am      8 UNK        -0.4342 
     33 C          27.9888  -50.4583  -58.0112 C.2       8 UNK         0.5039 
     34 O          27.8614  -50.7662  -59.1965 O.2       8 UNK        -0.5547 
     35 CA         27.4733  -51.4107  -56.9213 C.3       7 UNK         0.0281 
     36 CB         28.6177  -52.2683  -56.3556 C.3       7 UNK        -0.1963 
     37 N          26.8108  -50.6816  -55.8360 N.am      7 UNK        -0.4444 
     38 C          25.5811  -50.1534  -55.9220 C.2       7 UNK         0.5104 
     39 O          24.8547  -50.2662  -56.9089 O.2       7 UNK        -0.5100 
     40 CA         25.0818  -49.3410  -54.7131 C.3       6 UNK         0.0396 
     41 CB         24.3752  -50.2593  -53.7038 C.3       6 UNK        -0.1801 
     42 N          26.1471  -48.5988  -54.0341 N.am      6 UNK        -0.4747 
     43 C          26.8183  -47.5687  -54.5708 C.2       6 UNK         0.5012 
     44 O          26.5885  -47.1156  -55.6900 O.2       6 UNK        -0.5003 
     45 CA         27.9800  -46.9862  -53.7437 C.3       5 UNK         0.0782 
     46 C46        27.4735  -45.8491  -52.8226 C.3       11 UNK        -0.0868 
     47 S47        28.7882  -45.1485  -51.7686 S.3       11 UNK        -0.2515 
     48 C48        29.2329  -43.6219  -52.6639 C.3       11 UNK         0.0199 
     49 N          28.7210  -48.0270  -53.0176 N.am      5 UNK        -0.4607 
     50 C          29.3771  -49.0335  -53.6059 C.2       4 UNK         0.5031 
     51 O          29.3724  -49.2336  -54.8234 O.2       4 UNK        -0.5119 
     52 CA         30.1105  -50.0166  -52.6821 C.3       4 UNK         0.0263 
     53 CB         29.2170  -51.2304  -52.3792 C.3       4 UNK        -0.1967 
     54 N          31.3502  -50.4724  -53.3108 N.am      4 UNK        -0.4237 
     55 C          32.4380  -49.7050  -53.4458 C.2       3 UNK         0.4908 
     56 O          32.5643  -48.5972  -52.9182 O.2       3 UNK        -0.5102 
     57 CA         33.5490  -50.2580  -54.3469 C.3       3 UNK         0.0241 
     58 CB         33.1165  -50.2206  -55.8249 C.3       3 UNK        -0.1971 
     59 N          34.7500  -49.4412  -54.1891 N.am      3 UNK        -0.4139 
     60 C          35.9774  -49.8915  -53.9084 C.2       2 UNK         0.5016 
     61 O          36.2596  -51.0854  -53.7949 O.2       2 UNK        -0.5319 
     62 CA         37.0925  -48.8407  -53.7382 C.3       2 UNK         0.0286 
     63 CB         38.0776  -48.9084  -54.9176 C.3       2 UNK        -0.1963 
     64 N          36.5954  -47.4647  -53.6201 N.am      2 UNK        -0.4790 
     65 C          36.0778  -46.9317  -52.5061 C.2       1 UNK         0.5024 
     66 O          35.9728  -47.5438  -51.4395 O.2       1 UNK        -0.4888 
     67 H67        36.9679  -42.6597  -52.4204 H         1 UNK         0.0892 
     68 H68        35.8850  -41.5730  -51.5550 H         1 UNK         0.0892 
     69 H69        35.2345  -42.6529  -52.7783 H         1 UNK         0.0892 
     70 H70        35.5088  -45.6214  -50.5391 H         1 UNK         0.3107 
     71 H71        36.3328  -44.9321  -53.1996 H         1 UNK         0.0773 
     72 H72        33.7313  -44.4065  -53.0447 H         1 UNK         0.0680 
     73 H73        33.5200  -46.1226  -52.8956 H         1 UNK         0.0680 
     74 H74        32.6620  -46.4523  -56.5468 H         1 UNK         0.0650 
     75 H75        32.3986  -46.9588  -54.9028 H         1 UNK         0.0650 
     76 H76        31.1992  -45.4453  -53.2933 H         1 UNK         0.1397 
     77 H77        28.8159  -42.3161  -55.0147 H         1 UNK         0.1363 
     78 H78        31.7091  -44.3765  -57.4099 H         1 UNK         0.1355 
     79 H79        30.7501  -42.2265  -58.1431 H         1 UNK         0.0707 
     80 H80        29.5208  -41.4104  -57.2215 H         1 UNK         0.0707 
     81 H81        26.3457  -42.3767  -58.5961 H         1 UNK         0.1034 
     82 H82        27.2269  -41.7387  -57.2460 H         1 UNK         0.1034 
     83 H83        27.1088  -43.9285  -56.0812 H         1 UNK         0.0482 
     84 H84        23.3323  -43.6809  -55.3515 H         1 UNK         0.3460 
     85 H85        24.1881  -44.9951  -56.1220 H         1 UNK         0.3460 
     86 H86        26.5554  -45.8300  -56.9770 H         1 UNK         0.2989 
     87 H87        24.6223  -47.2332  -58.3678 H         1 UNK         0.0559 
     88 H88        24.9635  -48.1301  -60.6911 H         1 UNK         0.0848 
     89 H89        25.7033  -46.5996  -61.1616 H         1 UNK         0.0848 
     90 H90        24.0203  -46.6493  -60.6680 H         1 UNK         0.0848 
     91 H91        26.5474  -48.1299  -57.7963 H         1 UNK         0.3144 
     92 H92        29.6159  -48.6661  -59.2454 H         1 UNK         0.0727 
     93 H93        30.6862  -47.7952  -57.1554 H         1 UNK         0.0790 
     94 H94        29.2844  -46.7679  -56.8579 H         1 UNK         0.0790 
     95 H95        30.2946  -46.4900  -58.2673 H         1 UNK         0.0790 
     96 H96        28.6732  -49.1798  -56.5900 H         1 UNK         0.3215 
     97 H97        26.7448  -52.0821  -57.3817 H         1 UNK         0.0863 
     98 H98        28.2541  -52.9711  -55.6059 H         1 UNK         0.0808 
     99 H99        29.3982  -51.6605  -55.8976 H         1 UNK         0.0808 
    100 H100       29.0880  -52.8546  -57.1461 H         1 UNK         0.0808 
    101 H101       27.3617  -50.4894  -55.0118 H         1 UNK         0.3118 
    102 H102       24.3520  -48.6167  -55.0816 H         1 UNK         0.0546 
    103 H103       23.5605  -50.8071  -54.1797 H         1 UNK         0.0828 
    104 H104       23.9415  -49.6882  -52.8829 H         1 UNK         0.0828 
    105 H105       25.0574  -50.9962  -53.2781 H         1 UNK         0.0828 
    106 H106       26.4041  -48.9074  -53.1074 H         1 UNK         0.3005 
    107 H107       28.6758  -46.5477  -54.4618 H         1 UNK         0.1257 
    108 H108       26.6855  -46.2151  -52.1614 H         1 UNK         0.0775 
    109 H109       27.0235  -45.0493  -53.4145 H         1 UNK         0.0775 
    110 H110       28.3341  -43.0163  -52.7911 H         1 UNK         0.0840 
    111 H111       29.9076  -43.0381  -52.0364 H         1 UNK         0.0840 
    112 H112       28.7730  -47.9164  -52.0150 H         1 UNK         0.2987 
    113 H113       30.3548  -49.5144  -51.7433 H         1 UNK         0.0785 
    114 H114       28.9437  -51.7716  -53.2858 H         1 UNK         0.0798 
    115 H115       28.2912  -50.9238  -51.8904 H         1 UNK         0.0798 
    116 H116       29.7163  -51.9313  -51.7099 H         1 UNK         0.0798 
    117 H117       31.3100  -51.3531  -53.8021 H         1 UNK         0.3079 
    118 H118       33.7433  -51.2907  -54.0495 H         1 UNK         0.0794 
    119 H119       32.8782  -49.2073  -56.1506 H         1 UNK         0.0786 
    120 H120       32.2305  -50.8329  -55.9973 H         1 UNK         0.0786 
    121 H121       33.9033  -50.6030  -56.4754 H         1 UNK         0.0786 
    122 H122       34.5925  -48.4431  -54.1716 H         1 UNK         0.3032 
    123 H123       37.6351  -49.0964  -52.8248 H         1 UNK         0.1094 
    124 H124       37.5926  -48.6650  -55.8638 H         1 UNK         0.0794 
    125 H125       38.9114  -48.2197  -54.7791 H         1 UNK         0.0794 
    126 H126       38.5011  -49.9090  -55.0170 H         1 UNK         0.0794 
    127 H127       36.6284  -46.8990  -54.4577 H         1 UNK         0.3016 
@<TRIPOS>BOND
     1    1    2 1    
     2    1   67 1    
     3    1   68 1    
     4    1   69 1    
     5    2    3 2    
     6    2    4 am   BACKBONE|DICT|INTERRES
     7    4    5 1    
     8    4   70 1    
     9    5    6 1    
    10    5   65 1    
    11    5   71 1    
    12    6    7 1    
    13    6   72 1    
    14    6   73 1    
    15    7    8 1    
    16    8    9 1    
    17    8   74 1    
    18    8   75 1    
    19    9   10 ar   
    20    9   14 ar   
    21   10   11 ar   
    22   10   76 1    
    23   11   12 ar   
    24   11   48 1    
    25   12   13 ar   
    26   12   77 1    
    27   13   14 ar   
    28   13   15 1    
    29   14   78 1    
    30   15   16 1    
    31   15   79 1    
    32   15   80 1    
    33   16   17 1    
    34   17   18 1    
    35   17   81 1    
    36   17   82 1    
    37   18   19 1    
    38   18   22 1    
    39   18   83 1    
    40   19   20 am   BACKBONE|DICT|INTERRES
    41   19   21 2    
    42   20   84 1    
    43   20   85 1    
    44   22   23 am   BACKBONE|DICT|INTERRES
    45   22   86 1    
    46   23   24 2    
    47   23   25 1    
    48   25   26 1    
    49   25   27 1    
    50   25   87 1    
    51   26   88 1    
    52   26   89 1    
    53   26   90 1    
    54   27   28 am   BACKBONE|DICT|INTERRES
    55   27   91 1    
    56   28   29 2    
    57   28   30 1    
    58   30   31 1    
    59   30   32 1    
    60   30   92 1    
    61   31   93 1    
    62   31   94 1    
    63   31   95 1    
    64   32   33 am   BACKBONE|DICT|INTERRES
    65   32   96 1    
    66   33   34 2    
    67   33   35 1    
    68   35   36 1    
    69   35   37 1    
    70   35   97 1    
    71   36   98 1    
    72   36   99 1    
    73   36  100 1    
    74   37   38 am   BACKBONE|DICT|INTERRES
    75   37  101 1    
    76   38   39 2    
    77   38   40 1    
    78   40   41 1    
    79   40   42 1    
    80   40  102 1    
    81   41  103 1    
    82   41  104 1    
    83   41  105 1    
    84   42   43 am   BACKBONE|DICT|INTERRES
    85   42  106 1    
    86   43   44 2    
    87   43   45 1    
    88   45   46 1    
    89   45   49 1    
    90   45  107 1    
    91   46   47 1    
    92   46  108 1    
    93   46  109 1    
    94   47   48 1    
    95   48  110 1    
    96   48  111 1    
    97   49   50 am   BACKBONE|DICT|INTERRES
    98   49  112 1    
    99   50   51 2    
   100   50   52 1    
   101   52   53 1    
   102   52   54 1    
   103   52  113 1    
   104   53  114 1    
   105   53  115 1    
   106   53  116 1    
   107   54   55 am   BACKBONE|DICT|INTERRES
   108   54  117 1    
   109   55   56 2    
   110   55   57 1    
   111   57   58 1    
   112   57   59 1    
   113   57  118 1    
   114   58  119 1    
   115   58  120 1    
   116   58  121 1    
   117   59   60 am   BACKBONE|DICT|INTERRES
   118   59  122 1    
   119   60   61 2    
   120   60   62 1    
   121   62   63 1    
   122   62   64 1    
   123   62  123 1    
   124   63  124 1    
   125   63  125 1    
   126   63  126 1    
   127   64   65 am   BACKBONE|DICT|INTERRES
   128   64  127 1    
   129   65   66 2    
@<TRIPOS>SUBSTRUCTURE
     1 UNK         1 GROUP             0       ****    0 ROOT    
