@<TRIPOS>MOLECULE
3R134
127   129    1
SMALL
USER_CHARGES


@<TRIPOS>ATOM
      1 CA         34.8449  -45.7717  -48.8788 C.3       0 UNK        -0.1968 
      2 C          34.7248  -46.2677  -50.3116 C.2       0 UNK         0.4852 
      3 O          34.3448  -47.4205  -50.5288 O.2       0 UNK        -0.5359 
      4 N          35.0303  -45.4043  -51.2929 N.am      1 UNK        -0.4300 
      5 CA         34.9727  -45.7122  -52.7282 C.3       1 UNK         0.0863 
      6 C6         35.5587  -44.5845  -53.6133 C.3       11 UNK        -0.0953 
      7 S7         34.7047  -42.9771  -53.4494 S.3       11 UNK        -0.2369 
      8 C8         34.4016  -42.5298  -55.1899 C.3       11 UNK         0.0226 
      9 C9         33.1980  -43.2403  -55.8008 C.ar      11 UNK        -0.0699 
     10 C10        33.3699  -44.1967  -56.8086 C.ar      11 UNK        -0.0804 
     11 C11        32.2622  -44.7701  -57.4455 C.ar      11 UNK        -0.0871 
     12 C12        30.9777  -44.3733  -57.0634 C.ar      11 UNK        -0.1008 
     13 C13        30.7875  -43.4532  -56.0291 C.ar      11 UNK        -0.0735 
     14 C14        31.9037  -42.8861  -55.4059 C.ar      11 UNK        -0.0945 
     15 C15        29.3797  -43.0587  -55.5991 C.3       11 UNK         0.0169 
     16 S16        28.3891  -44.5088  -55.1140 S.3       11 UNK        -0.2669 
     17 C17        26.9932  -43.7294  -54.2261 C.3       11 UNK        -0.0850 
     18 CA         25.6613  -43.7286  -55.0221 C.3       10 UNK         0.0855 
     19 C          25.6288  -42.6235  -56.1207 C.2       10 UNK         0.5543 
     20 N          25.3785  -42.9321  -57.3875 N.am      10 UNK        -0.7343 
     21 O          25.8230  -41.4508  -55.8102 O.2       10 UNK        -0.5027 
     22 N          25.3253  -45.0817  -55.4848 N.am      10 UNK        -0.4495 
     23 C          24.0994  -45.5330  -55.7710 C.2       10 UNK         0.4903 
     24 O          23.0676  -44.8911  -55.5673 O.2       10 UNK        -0.4860 
     25 CA         24.0326  -46.9370  -56.4100 C.3       9 UNK         0.0227 
     26 CB         22.6826  -47.2138  -57.1044 C.3       9 UNK        -0.1964 
     27 N          25.1504  -47.2087  -57.3276 N.am      9 UNK        -0.4231 
     28 C          25.4960  -46.4879  -58.4098 C.2       9 UNK         0.5014 
     29 O          24.8924  -45.4799  -58.7793 O.2       9 UNK        -0.5270 
     30 CA         26.7476  -46.9186  -59.1973 C.3       8 UNK         0.0284 
     31 CB         27.9220  -45.9870  -58.8614 C.3       8 UNK        -0.1977 
     32 N          27.1584  -48.3003  -58.9496 N.am      8 UNK        -0.4342 
     33 C          26.4809  -49.3876  -59.3386 C.2       8 UNK         0.5039 
     34 O          25.4701  -49.3497  -60.0412 O.2       8 UNK        -0.5547 
     35 CA         27.0027  -50.7477  -58.8434 C.3       7 UNK         0.0281 
     36 CB         27.7995  -51.4513  -59.9532 C.3       7 UNK        -0.1963 
     37 N          27.8294  -50.6850  -57.6324 N.am      7 UNK        -0.4444 
     38 C          27.4562  -50.2382  -56.4273 C.2       7 UNK         0.5104 
     39 O          26.3637  -49.7153  -56.2044 O.2       7 UNK        -0.5100 
     40 CA         28.4730  -50.3883  -55.2796 C.3       6 UNK         0.0396 
     41 CB         28.6165  -51.8618  -54.8547 C.3       6 UNK        -0.1801 
     42 N          29.7887  -49.7776  -55.5175 N.am      6 UNK        -0.4747 
     43 C          30.7031  -50.0652  -56.4589 C.2       6 UNK         0.5012 
     44 O          30.5519  -50.9221  -57.3313 O.2       6 UNK        -0.5003 
     45 CA         32.0289  -49.2843  -56.3909 C.3       5 UNK         0.0782 
     46 C46        31.8418  -47.7686  -56.6366 C.3       11 UNK        -0.0868 
     47 S47        31.4374  -47.3098  -58.3495 S.3       11 UNK        -0.2515 
     48 C48        32.4582  -45.8041  -58.5553 C.3       11 UNK         0.0199 
     49 N          32.7011  -49.5046  -55.1118 N.am      5 UNK        -0.4607 
     50 C          33.2159  -50.6560  -54.6647 C.2       4 UNK         0.5031 
     51 O          33.2356  -51.7023  -55.3124 O.2       4 UNK        -0.5119 
     52 CA         33.8126  -50.6270  -53.2459 C.3       4 UNK         0.0263 
     53 CB         35.2523  -50.0874  -53.2686 C.3       4 UNK        -0.1967 
     54 N          33.0050  -49.8262  -52.3216 N.am      4 UNK        -0.4237 
     55 C          31.7976  -50.1915  -51.8668 C.2       3 UNK         0.4908 
     56 O          31.2772  -51.2821  -52.1011 O.2       3 UNK        -0.5102 
     57 CA         31.0335  -49.1665  -51.0143 C.3       3 UNK         0.0241 
     58 CB         31.4208  -49.2932  -49.5320 C.3       3 UNK        -0.1971 
     59 N          31.2483  -47.7897  -51.4628 N.am      3 UNK        -0.4139 
     60 C          30.7294  -47.2677  -52.5837 C.2       2 UNK         0.5016 
     61 O          30.0059  -47.8881  -53.3627 O.2       2 UNK        -0.5319 
     62 CA         31.1165  -45.8150  -52.9064 C.3       2 UNK         0.0286 
     63 CB         30.2327  -44.8345  -52.1189 C.3       2 UNK        -0.1963 
     64 N          32.5225  -45.5129  -52.6344 N.am      2 UNK        -0.4790 
     65 C          33.5686  -46.1356  -53.1964 C.2       1 UNK         0.5024 
     66 O          33.4644  -47.0521  -54.0058 O.2       1 UNK        -0.4888 
     67 H67        33.8819  -45.8464  -48.3743 H         1 UNK         0.0892 
     68 H68        35.1735  -44.7336  -48.8324 H         1 UNK         0.0892 
     69 H69        35.5643  -46.3807  -48.3320 H         1 UNK         0.0892 
     70 H70        35.3237  -44.4655  -51.0609 H         1 UNK         0.3107 
     71 H71        35.6114  -46.5867  -52.8716 H         1 UNK         0.0773 
     72 H72        35.5596  -44.8961  -54.6595 H         1 UNK         0.0680 
     73 H73        36.6076  -44.4294  -53.3567 H         1 UNK         0.0680 
     74 H74        34.2308  -41.4537  -55.2402 H         1 UNK         0.0650 
     75 H75        35.3040  -42.7153  -55.7744 H         1 UNK         0.0650 
     76 H76        34.3686  -44.4768  -57.1139 H         1 UNK         0.1397 
     77 H77        30.1185  -44.8001  -57.5580 H         1 UNK         0.1363 
     78 H78        31.7701  -42.1529  -54.6225 H         1 UNK         0.1355 
     79 H79        28.8814  -42.5388  -56.4184 H         1 UNK         0.0707 
     80 H80        29.4246  -42.3593  -54.7633 H         1 UNK         0.0707 
     81 H81        27.2596  -42.7214  -53.9031 H         1 UNK         0.1034 
     82 H82        26.8493  -44.2908  -53.3018 H         1 UNK         0.1034 
     83 H83        24.8824  -43.4356  -54.3156 H         1 UNK         0.0482 
     84 H84        25.3572  -42.1947  -58.0730 H         1 UNK         0.3460 
     85 H85        25.1918  -43.8869  -57.6760 H         1 UNK         0.3460 
     86 H86        26.1186  -45.6698  -55.6950 H         1 UNK         0.2989 
     87 H87        24.1345  -47.6494  -55.5901 H         1 UNK         0.0559 
     88 H88        22.4873  -46.5016  -57.9069 H         1 UNK         0.0848 
     89 H89        21.8555  -47.1416  -56.3972 H         1 UNK         0.0848 
     90 H90        22.6550  -48.2161  -57.5320 H         1 UNK         0.0848 
     91 H91        25.7059  -48.0273  -57.0946 H         1 UNK         0.3144 
     92 H92        26.5165  -46.8157  -60.2595 H         1 UNK         0.0727 
     93 H93        27.6555  -44.9408  -59.0192 H         1 UNK         0.0790 
     94 H94        28.7875  -46.1964  -59.4900 H         1 UNK         0.0790 
     95 H95        28.2261  -46.0924  -57.8197 H         1 UNK         0.0790 
     96 H96        27.9888  -48.4378  -58.3919 H         1 UNK         0.3215 
     97 H97        26.1285  -51.3575  -58.6078 H         1 UNK         0.0863 
     98 H98        28.0879  -52.4599  -59.6569 H         1 UNK         0.0808 
     99 H99        28.7079  -50.9033  -60.2054 H         1 UNK         0.0808 
    100 H100       27.2072  -51.5400  -60.8648 H         1 UNK         0.0808 
    101 H101       28.7879  -51.0224  -57.7088 H         1 UNK         0.3118 
    102 H102       28.0581  -49.8477  -54.4274 H         1 UNK         0.0546 
    103 H103       27.6457  -52.2927  -54.6075 H         1 UNK         0.0828 
    104 H104       29.2468  -51.9561  -53.9704 H         1 UNK         0.0828 
    105 H105       29.0539  -52.4766  -55.6415 H         1 UNK         0.0828 
    106 H106       30.0218  -49.0508  -54.8419 H         1 UNK         0.3005 
    107 H107       32.6835  -49.6806  -57.1703 H         1 UNK         0.1257 
    108 H108       32.7776  -47.2662  -56.3972 H         1 UNK         0.0775 
    109 H109       31.0961  -47.3377  -55.9673 H         1 UNK         0.0775 
    110 H110       33.5042  -46.1048  -58.6167 H         1 UNK         0.0840 
    111 H111       32.2147  -45.3435  -59.5124 H         1 UNK         0.0840 
    112 H112       32.8125  -48.6762  -54.5320 H         1 UNK         0.2987 
    113 H113       33.8399  -51.6536  -52.8736 H         1 UNK         0.0785 
    114 H114       35.8847  -50.6933  -53.9187 H         1 UNK         0.0798 
    115 H115       35.6981  -50.1050  -52.2737 H         1 UNK         0.0798 
    116 H116       35.2958  -49.0617  -53.6365 H         1 UNK         0.0798 
    117 H117       33.3726  -48.9233  -52.0478 H         1 UNK         0.3079 
    118 H118       29.9683  -49.3899  -51.1072 H         1 UNK         0.0794 
    119 H119       32.4763  -49.0723  -49.3679 H         1 UNK         0.0786 
    120 H120       31.2397  -50.3055  -49.1680 H         1 UNK         0.0786 
    121 H121       30.8351  -48.6163  -48.9097 H         1 UNK         0.0786 
    122 H122       31.8824  -47.2240  -50.9160 H         1 UNK         0.3032 
    123 H123       30.9460  -45.6613  -53.9743 H         1 UNK         0.1094 
    124 H124       30.3837  -43.8094  -52.4576 H         1 UNK         0.0794 
    125 H125       29.1754  -45.0656  -52.2542 H         1 UNK         0.0794 
    126 H126       30.4369  -44.8712  -51.0484 H         1 UNK         0.0794 
    127 H127       32.7134  -44.7629  -51.9860 H         1 UNK         0.3016 
@<TRIPOS>BOND
     1    1    2 1    
     2    1   67 1    
     3    1   68 1    
     4    1   69 1    
     5    2    3 2    
     6    2    4 am   BACKBONE|DICT|INTERRES
     7    4    5 1    
     8    4   70 1    
     9    5    6 1    
    10    5   65 1    
    11    5   71 1    
    12    6    7 1    
    13    6   72 1    
    14    6   73 1    
    15    7    8 1    
    16    8    9 1    
    17    8   74 1    
    18    8   75 1    
    19    9   10 ar   
    20    9   14 ar   
    21   10   11 ar   
    22   10   76 1    
    23   11   12 ar   
    24   11   48 1    
    25   12   13 ar   
    26   12   77 1    
    27   13   14 ar   
    28   13   15 1    
    29   14   78 1    
    30   15   16 1    
    31   15   79 1    
    32   15   80 1    
    33   16   17 1    
    34   17   18 1    
    35   17   81 1    
    36   17   82 1    
    37   18   19 1    
    38   18   22 1    
    39   18   83 1    
    40   19   20 am   BACKBONE|DICT|INTERRES
    41   19   21 2    
    42   20   84 1    
    43   20   85 1    
    44   22   23 am   BACKBONE|DICT|INTERRES
    45   22   86 1    
    46   23   24 2    
    47   23   25 1    
    48   25   26 1    
    49   25   27 1    
    50   25   87 1    
    51   26   88 1    
    52   26   89 1    
    53   26   90 1    
    54   27   28 am   BACKBONE|DICT|INTERRES
    55   27   91 1    
    56   28   29 2    
    57   28   30 1    
    58   30   31 1    
    59   30   32 1    
    60   30   92 1    
    61   31   93 1    
    62   31   94 1    
    63   31   95 1    
    64   32   33 am   BACKBONE|DICT|INTERRES
    65   32   96 1    
    66   33   34 2    
    67   33   35 1    
    68   35   36 1    
    69   35   37 1    
    70   35   97 1    
    71   36   98 1    
    72   36   99 1    
    73   36  100 1    
    74   37   38 am   BACKBONE|DICT|INTERRES
    75   37  101 1    
    76   38   39 2    
    77   38   40 1    
    78   40   41 1    
    79   40   42 1    
    80   40  102 1    
    81   41  103 1    
    82   41  104 1    
    83   41  105 1    
    84   42   43 am   BACKBONE|DICT|INTERRES
    85   42  106 1    
    86   43   44 2    
    87   43   45 1    
    88   45   46 1    
    89   45   49 1    
    90   45  107 1    
    91   46   47 1    
    92   46  108 1    
    93   46  109 1    
    94   47   48 1    
    95   48  110 1    
    96   48  111 1    
    97   49   50 am   BACKBONE|DICT|INTERRES
    98   49  112 1    
    99   50   51 2    
   100   50   52 1    
   101   52   53 1    
   102   52   54 1    
   103   52  113 1    
   104   53  114 1    
   105   53  115 1    
   106   53  116 1    
   107   54   55 am   BACKBONE|DICT|INTERRES
   108   54  117 1    
   109   55   56 2    
   110   55   57 1    
   111   57   58 1    
   112   57   59 1    
   113   57  118 1    
   114   58  119 1    
   115   58  120 1    
   116   58  121 1    
   117   59   60 am   BACKBONE|DICT|INTERRES
   118   59  122 1    
   119   60   61 2    
   120   60   62 1    
   121   62   63 1    
   122   62   64 1    
   123   62  123 1    
   124   63  124 1    
   125   63  125 1    
   126   63  126 1    
   127   64   65 am   BACKBONE|DICT|INTERRES
   128   64  127 1    
   129   65   66 2    
@<TRIPOS>SUBSTRUCTURE
     1 UNK         1 GROUP             0       ****    0 ROOT    
