@<TRIPOS>MOLECULE
3R134
127   129    1
SMALL
USER_CHARGES


@<TRIPOS>ATOM
      1 CA         26.0597  -47.4757  -51.3826 C.3       0 UNK        -0.1968 
      2 C          27.4853  -47.0259  -51.0975 C.2       0 UNK         0.4852 
      3 O          27.8161  -46.7285  -49.9485 O.2       0 UNK        -0.5359 
      4 N          28.3253  -46.9649  -52.1369 N.am      1 UNK        -0.4300 
      5 CA         29.7394  -46.6028  -52.0561 C.3       1 UNK         0.0863 
      6 C6         30.2843  -46.1859  -53.4444 C.3       11 UNK        -0.0953 
      7 S7         31.8304  -45.2252  -53.3171 S.3       11 UNK        -0.2369 
      8 C8         31.5640  -43.8931  -54.5270 C.3       11 UNK         0.0226 
      9 C9         31.4075  -44.4295  -55.9429 C.ar      11 UNK        -0.0699 
     10 C10        32.4887  -45.0137  -56.6061 C.ar      11 UNK        -0.0804 
     11 C11        32.3416  -45.5255  -57.8997 C.ar      11 UNK        -0.0871 
     12 C12        31.1085  -45.3904  -58.5528 C.ar      11 UNK        -0.1008 
     13 C13        30.0191  -44.8036  -57.8987 C.ar      11 UNK        -0.0735 
     14 C14        30.1757  -44.3432  -56.5907 C.ar      11 UNK        -0.0945 
     15 C15        28.6546  -44.7223  -58.5709 C.3       11 UNK         0.0169 
     16 S16        28.4077  -43.1963  -59.5297 S.3       11 UNK        -0.2669 
     17 C17        28.2888  -41.8837  -58.2581 C.3       11 UNK        -0.0850 
     18 CA         26.9223  -41.7406  -57.5220 C.3       10 UNK         0.0855 
     19 C          25.6730  -41.6565  -58.4467 C.2       10 UNK         0.5543 
     20 N          24.5644  -42.3224  -58.1357 N.am      10 UNK        -0.7343 
     21 O          25.6945  -40.9458  -59.4487 O.2       10 UNK        -0.5027 
     22 N          26.7675  -42.7004  -56.4216 N.am      10 UNK        -0.4495 
     23 C          27.2101  -42.5344  -55.1733 C.2       10 UNK         0.4903 
     24 O          27.9106  -41.5832  -54.8264 O.2       10 UNK        -0.4860 
     25 CA         26.8523  -43.6063  -54.1219 C.3       9 UNK         0.0227 
     26 CB         25.9552  -43.0054  -53.0222 C.3       9 UNK        -0.1964 
     27 N          26.2679  -44.8669  -54.6115 N.am      9 UNK        -0.4231 
     28 C          25.1167  -45.0789  -55.2623 C.2       9 UNK         0.5014 
     29 O          24.4418  -44.1808  -55.7705 O.2       9 UNK        -0.5270 
     30 CA         24.6512  -46.5471  -55.3602 C.3       8 UNK         0.0284 
     31 CB         23.2461  -46.6746  -55.9788 C.3       8 UNK        -0.1977 
     32 N          25.5703  -47.4169  -56.1006 N.am      8 UNK        -0.4342 
     33 C          26.7774  -47.8281  -55.6937 C.2       8 UNK         0.5039 
     34 O          27.3135  -47.4502  -54.6485 O.2       8 UNK        -0.5547 
     35 CA         27.5021  -48.8073  -56.6251 C.3       7 UNK         0.0281 
     36 CB         28.0041  -48.0939  -57.8887 C.3       7 UNK        -0.1963 
     37 N          28.6565  -49.4149  -55.9693 N.am      7 UNK        -0.4444 
     38 C          28.6729  -50.6068  -55.3626 C.2       7 UNK         0.5104 
     39 O          27.6678  -51.2979  -55.1847 O.2       7 UNK        -0.5100 
     40 CA         30.0636  -51.1254  -54.9268 C.3       6 UNK         0.0396 
     41 CB         30.1037  -52.6593  -54.7723 C.3       6 UNK        -0.1801 
     42 N          31.1604  -50.6724  -55.7994 N.am      6 UNK        -0.4747 
     43 C          31.2549  -50.8209  -57.1343 C.2       6 UNK         0.5012 
     44 O          30.4445  -51.4472  -57.8181 O.2       6 UNK        -0.5003 
     45 CA         32.4300  -50.1074  -57.8374 C.3       5 UNK         0.0782 
     46 C46        32.0152  -48.6488  -58.1531 C.3       11 UNK        -0.0868 
     47 S47        33.1085  -47.8264  -59.3605 S.3       11 UNK        -0.2515 
     48 C48        33.5244  -46.2343  -58.5591 C.3       11 UNK         0.0199 
     49 N          33.6673  -50.1693  -57.0534 N.am      5 UNK        -0.4607 
     50 C          34.3060  -51.2987  -56.7166 C.2       4 UNK         0.5031 
     51 O          34.0082  -52.4072  -57.1626 O.2       4 UNK        -0.5119 
     52 CA         35.4589  -51.1922  -55.6978 C.3       4 UNK         0.0263 
     53 CB         36.8142  -51.3250  -56.4121 C.3       4 UNK        -0.1967 
     54 N          35.4720  -49.9750  -54.8735 N.am      4 UNK        -0.4237 
     55 C          34.4849  -49.5442  -54.0742 C.2       3 UNK         0.4908 
     56 O          33.3818  -50.0879  -53.9856 O.2       3 UNK        -0.5102 
     57 CA         34.7692  -48.2408  -53.3092 C.3       3 UNK         0.0241 
     58 CB         34.7390  -47.0483  -54.2793 C.3       3 UNK        -0.1971 
     59 N          33.8014  -48.0000  -52.2362 N.am      3 UNK        -0.4139 
     60 C          33.7108  -48.7066  -51.0998 C.2       2 UNK         0.5016 
     61 O          34.4909  -49.6109  -50.7958 O.2       2 UNK        -0.5319 
     62 CA         32.5830  -48.3324  -50.1166 C.3       2 UNK         0.0286 
     63 CB         33.1677  -47.7104  -48.8368 C.3       2 UNK        -0.1963 
     64 N          31.6034  -47.4010  -50.6857 N.am      2 UNK        -0.4790 
     65 C          30.5665  -47.7584  -51.4548 C.2       1 UNK         0.5024 
     66 O          30.2857  -48.9277  -51.7278 O.2       1 UNK        -0.4888 
     67 H67        25.9762  -47.9659  -52.3513 H         1 UNK         0.0892 
     68 H68        25.3870  -46.6198  -51.3723 H         1 UNK         0.0892 
     69 H69        25.7276  -48.1812  -50.6226 H         1 UNK         0.0892 
     70 H70        27.9981  -47.2533  -53.0603 H         1 UNK         0.3107 
     71 H71        29.8088  -45.7416  -51.3874 H         1 UNK         0.0773 
     72 H72        29.5436  -45.5713  -53.9570 H         1 UNK         0.0680 
     73 H73        30.4479  -47.0513  -54.0901 H         1 UNK         0.0680 
     74 H74        32.4158  -43.2127  -54.4945 H         1 UNK         0.0650 
     75 H75        30.6920  -43.3079  -54.2296 H         1 UNK         0.0650 
     76 H76        33.4413  -45.0842  -56.1004 H         1 UNK         0.1397 
     77 H77        30.9881  -45.7714  -59.5576 H         1 UNK         0.1363 
     78 H78        29.3351  -43.9137  -56.0733 H         1 UNK         0.1355 
     79 H79        27.8583  -44.8279  -57.8334 H         1 UNK         0.0707 
     80 H80        28.5402  -45.5622  -59.2569 H         1 UNK         0.0707 
     81 H81        28.4995  -40.9444  -58.7720 H         1 UNK         0.1034 
     82 H82        29.1022  -41.9887  -57.5409 H         1 UNK         0.1034 
     83 H83        26.9358  -40.7520  -57.0589 H         1 UNK         0.0482 
     84 H84        23.7659  -42.2417  -58.7448 H         1 UNK         0.3460 
     85 H85        24.4885  -42.8738  -57.2884 H         1 UNK         0.3460 
     86 H86        26.1342  -43.4713  -56.5924 H         1 UNK         0.2989 
     87 H87        27.7966  -43.8871  -53.6534 H         1 UNK         0.0559 
     88 H88        26.4172  -42.1245  -52.5744 H         1 UNK         0.0848 
     89 H89        25.7810  -43.7202  -52.2178 H         1 UNK         0.0848 
     90 H90        24.9853  -42.6982  -53.4150 H         1 UNK         0.0848 
     91 H91        26.7853  -45.7115  -54.3743 H         1 UNK         0.3144 
     92 H92        24.5899  -46.9220  -54.3364 H         1 UNK         0.0727 
     93 H93        22.8919  -47.7053  -55.9539 H         1 UNK         0.0790 
     94 H94        23.2285  -46.3370  -57.0160 H         1 UNK         0.0790 
     95 H95        22.5204  -46.0737  -55.4288 H         1 UNK         0.0790 
     96 H96        25.2303  -47.7534  -56.9902 H         1 UNK         0.3215 
     97 H97        26.7932  -49.5847  -56.9192 H         1 UNK         0.0863 
     98 H98        28.4295  -48.8054  -58.5968 H         1 UNK         0.0808 
     99 H99        28.7776  -47.3661  -57.6467 H         1 UNK         0.0808 
    100 H100       27.1998  -47.5697  -58.4061 H         1 UNK         0.0808 
    101 H101       29.5175  -48.8916  -56.0003 H         1 UNK         0.3118 
    102 H102       30.2569  -50.6885  -53.9461 H         1 UNK         0.0546 
    103 H103       31.0867  -52.9976  -54.4447 H         1 UNK         0.0828 
    104 H104       29.8691  -53.1655  -55.7092 H         1 UNK         0.0828 
    105 H105       29.3815  -52.9979  -54.0285 H         1 UNK         0.0828 
    106 H106       31.9282  -50.2174  -55.3116 H         1 UNK         0.3005 
    107 H107       32.6044  -50.6351  -58.7780 H         1 UNK         0.1257 
    108 H108       31.9641  -48.0694  -57.2299 H         1 UNK         0.0775 
    109 H109       31.0124  -48.6145  -58.5840 H         1 UNK         0.0775 
    110 H110       34.3095  -46.4258  -57.8259 H         1 UNK         0.0840 
    111 H111       33.9604  -45.5693  -59.3055 H         1 UNK         0.0840 
    112 H112       33.9992  -49.2991  -56.6675 H         1 UNK         0.2987 
    113 H113       35.3496  -52.0370  -55.0146 H         1 UNK         0.0785 
    114 H114       37.6379  -51.3716  -55.6994 H         1 UNK         0.0798 
    115 H115       36.9979  -50.4878  -57.0867 H         1 UNK         0.0798 
    116 H116       36.8553  -52.2380  -57.0082 H         1 UNK         0.0798 
    117 H117       36.3299  -49.4420  -54.8949 H         1 UNK         0.3079 
    118 H118       35.7624  -48.3113  -52.8605 H         1 UNK         0.0794 
    119 H119       35.5219  -47.1265  -55.0345 H         1 UNK         0.0786 
    120 H120       34.8922  -46.1034  -53.7572 H         1 UNK         0.0786 
    121 H121       33.7848  -46.9935  -54.8039 H         1 UNK         0.0786 
    122 H122       33.1033  -47.2912  -52.4088 H         1 UNK         0.3032 
    123 H123       32.0753  -49.2608  -49.8442 H         1 UNK         0.1094 
    124 H124       33.7007  -46.7818  -49.0453 H         1 UNK         0.0794 
    125 H125       32.3864  -47.4942  -48.1078 H         1 UNK         0.0794 
    126 H126       33.8739  -48.3906  -48.3584 H         1 UNK         0.0794 
    127 H127       31.7682  -46.4174  -50.5204 H         1 UNK         0.3016 
@<TRIPOS>BOND
     1    1    2 1    
     2    1   67 1    
     3    1   68 1    
     4    1   69 1    
     5    2    3 2    
     6    2    4 am   BACKBONE|DICT|INTERRES
     7    4    5 1    
     8    4   70 1    
     9    5    6 1    
    10    5   65 1    
    11    5   71 1    
    12    6    7 1    
    13    6   72 1    
    14    6   73 1    
    15    7    8 1    
    16    8    9 1    
    17    8   74 1    
    18    8   75 1    
    19    9   10 ar   
    20    9   14 ar   
    21   10   11 ar   
    22   10   76 1    
    23   11   12 ar   
    24   11   48 1    
    25   12   13 ar   
    26   12   77 1    
    27   13   14 ar   
    28   13   15 1    
    29   14   78 1    
    30   15   16 1    
    31   15   79 1    
    32   15   80 1    
    33   16   17 1    
    34   17   18 1    
    35   17   81 1    
    36   17   82 1    
    37   18   19 1    
    38   18   22 1    
    39   18   83 1    
    40   19   20 am   BACKBONE|DICT|INTERRES
    41   19   21 2    
    42   20   84 1    
    43   20   85 1    
    44   22   23 am   BACKBONE|DICT|INTERRES
    45   22   86 1    
    46   23   24 2    
    47   23   25 1    
    48   25   26 1    
    49   25   27 1    
    50   25   87 1    
    51   26   88 1    
    52   26   89 1    
    53   26   90 1    
    54   27   28 am   BACKBONE|DICT|INTERRES
    55   27   91 1    
    56   28   29 2    
    57   28   30 1    
    58   30   31 1    
    59   30   32 1    
    60   30   92 1    
    61   31   93 1    
    62   31   94 1    
    63   31   95 1    
    64   32   33 am   BACKBONE|DICT|INTERRES
    65   32   96 1    
    66   33   34 2    
    67   33   35 1    
    68   35   36 1    
    69   35   37 1    
    70   35   97 1    
    71   36   98 1    
    72   36   99 1    
    73   36  100 1    
    74   37   38 am   BACKBONE|DICT|INTERRES
    75   37  101 1    
    76   38   39 2    
    77   38   40 1    
    78   40   41 1    
    79   40   42 1    
    80   40  102 1    
    81   41  103 1    
    82   41  104 1    
    83   41  105 1    
    84   42   43 am   BACKBONE|DICT|INTERRES
    85   42  106 1    
    86   43   44 2    
    87   43   45 1    
    88   45   46 1    
    89   45   49 1    
    90   45  107 1    
    91   46   47 1    
    92   46  108 1    
    93   46  109 1    
    94   47   48 1    
    95   48  110 1    
    96   48  111 1    
    97   49   50 am   BACKBONE|DICT|INTERRES
    98   49  112 1    
    99   50   51 2    
   100   50   52 1    
   101   52   53 1    
   102   52   54 1    
   103   52  113 1    
   104   53  114 1    
   105   53  115 1    
   106   53  116 1    
   107   54   55 am   BACKBONE|DICT|INTERRES
   108   54  117 1    
   109   55   56 2    
   110   55   57 1    
   111   57   58 1    
   112   57   59 1    
   113   57  118 1    
   114   58  119 1    
   115   58  120 1    
   116   58  121 1    
   117   59   60 am   BACKBONE|DICT|INTERRES
   118   59  122 1    
   119   60   61 2    
   120   60   62 1    
   121   62   63 1    
   122   62   64 1    
   123   62  123 1    
   124   63  124 1    
   125   63  125 1    
   126   63  126 1    
   127   64   65 am   BACKBONE|DICT|INTERRES
   128   64  127 1    
   129   65   66 2    
@<TRIPOS>SUBSTRUCTURE
     1 UNK         1 GROUP             0       ****    0 ROOT    
