@<TRIPOS>MOLECULE
3R134
127   129    1
SMALL
USER_CHARGES


@<TRIPOS>ATOM
      1 CA         37.9306  -46.8633  -53.9190 C.3       0 UNK        -0.1968 
      2 C          36.4807  -46.8900  -54.3776 C.2       0 UNK         0.4852 
      3 O          35.9215  -47.9708  -54.5746 O.2       0 UNK        -0.5359 
      4 N          35.8580  -45.7109  -54.5296 N.am      1 UNK        -0.4300 
      5 CA         34.4733  -45.5361  -54.9922 C.3       1 UNK         0.0863 
      6 C6         34.1288  -44.0554  -55.2816 C.3       11 UNK        -0.0953 
      7 S7         34.2345  -42.9564  -53.8299 S.3       11 UNK        -0.2369 
      8 C8         33.0238  -41.6669  -54.2832 C.3       11 UNK         0.0226 
      9 C9         31.5585  -42.0889  -54.1648 C.ar      11 UNK        -0.0699 
     10 C10        31.1009  -42.8278  -53.0658 C.ar      11 UNK        -0.0804 
     11 C11        29.7410  -43.1232  -52.9203 C.ar      11 UNK        -0.0871 
     12 C12        28.8353  -42.6677  -53.8817 C.ar      11 UNK        -0.1008 
     13 C13        29.2739  -41.9381  -54.9879 C.ar      11 UNK        -0.0735 
     14 C14        30.6370  -41.6567  -55.1272 C.ar      11 UNK        -0.0945 
     15 C15        28.2538  -41.4054  -55.9845 C.3       11 UNK         0.0169 
     16 S16        27.5484  -42.7215  -57.0291 S.3       11 UNK        -0.2669 
     17 C17        28.7034  -42.7490  -58.4458 C.3       11 UNK        -0.0850 
     18 CA         29.4147  -44.1082  -58.6630 C.3       10 UNK         0.0855 
     19 C          30.5495  -44.3447  -57.6288 C.2       10 UNK         0.5543 
     20 N          30.3827  -45.2435  -56.6671 N.am      10 UNK        -0.7343 
     21 O          31.5980  -43.7137  -57.7253 O.2       10 UNK        -0.5027 
     22 N          28.4575  -45.2192  -58.8025 N.am      10 UNK        -0.4495 
     23 C          28.7103  -46.3460  -59.4799 C.2       10 UNK         0.4903 
     24 O          29.7629  -46.5468  -60.0875 O.2       10 UNK        -0.4860 
     25 CA         27.6054  -47.4174  -59.5005 C.3       9 UNK         0.0227 
     26 CB         28.1319  -48.8027  -59.9238 C.3       9 UNK        -0.1964 
     27 N          26.9462  -47.5541  -58.2013 N.am      9 UNK        -0.4231 
     28 C          25.7419  -47.0601  -57.8847 C.2       9 UNK         0.5014 
     29 O          25.1079  -46.2986  -58.6174 O.2       9 UNK        -0.5270 
     30 CA         25.1488  -47.4901  -56.5247 C.3       8 UNK         0.0284 
     31 CB         23.6145  -47.3359  -56.4630 C.3       8 UNK        -0.1977 
     32 N          25.5528  -48.8426  -56.1136 N.am      8 UNK        -0.4342 
     33 C          25.3573  -49.9985  -56.7716 C.2       8 UNK         0.5039 
     34 O          24.6864  -50.0926  -57.8004 O.2       8 UNK        -0.5547 
     35 CA         26.0489  -51.2631  -56.2223 C.3       7 UNK         0.0281 
     36 CB         26.9250  -51.9144  -57.3081 C.3       7 UNK        -0.1963 
     37 N          26.8975  -50.9708  -55.0650 N.am      7 UNK        -0.4444 
     38 C          26.6071  -51.2691  -53.7913 C.2       7 UNK         0.5104 
     39 O          25.6101  -51.9041  -53.4467 O.2       7 UNK        -0.5100 
     40 CA         27.5775  -50.7530  -52.7072 C.3       6 UNK         0.0396 
     41 CB         28.5483  -51.8659  -52.2836 C.3       6 UNK        -0.1801 
     42 N          28.3501  -49.5690  -53.1002 N.am      6 UNK        -0.4747 
     43 C          27.8266  -48.3853  -53.4548 C.2       6 UNK         0.5012 
     44 O          26.6180  -48.1537  -53.4678 O.2       6 UNK        -0.5003 
     45 CA         28.8082  -47.3158  -53.9748 C.3       5 UNK         0.0782 
     46 C46        29.3724  -46.4622  -52.8145 C.3       11 UNK        -0.0868 
     47 S47        28.1654  -45.2911  -52.1171 S.3       11 UNK        -0.2515 
     48 C48        29.2417  -43.8805  -51.6949 C.3       11 UNK         0.0199 
     49 N          29.8908  -47.8980  -54.7791 N.am      5 UNK        -0.4607 
     50 C          29.7552  -48.6617  -55.8727 C.2       4 UNK         0.5031 
     51 O          28.6664  -48.9256  -56.3824 O.2       4 UNK        -0.5119 
     52 CA         31.0359  -49.2621  -56.4766 C.3       4 UNK         0.0263 
     53 CB         31.6179  -48.3585  -57.5717 C.3       4 UNK        -0.1967 
     54 N          32.0630  -49.5029  -55.4631 N.am      4 UNK        -0.4237 
     55 C          32.0966  -50.5699  -54.6538 C.2       3 UNK         0.4908 
     56 O          31.2977  -51.5041  -54.7157 O.2       3 UNK        -0.5102 
     57 CA         33.1956  -50.5831  -53.5776 C.3       3 UNK         0.0241 
     58 CB         34.5022  -51.1625  -54.1423 C.3       3 UNK        -0.1971 
     59 N          33.4476  -49.2516  -53.0187 N.am      3 UNK        -0.4139 
     60 C          32.5784  -48.5935  -52.2357 C.2       2 UNK         0.5016 
     61 O          31.5030  -49.0656  -51.8658 O.2       2 UNK        -0.5319 
     62 CA         32.9461  -47.1553  -51.8222 C.3       2 UNK         0.0286 
     63 CB         33.6794  -47.1576  -50.4722 C.3       2 UNK        -0.1963 
     64 N          33.7579  -46.4394  -52.8094 N.am      2 UNK        -0.4790 
     65 C          33.4160  -46.1980  -54.0847 C.2       1 UNK         0.5024 
     66 O          32.3323  -46.5170  -54.5714 O.2       1 UNK        -0.4888 
     67 H67        38.5661  -47.3457  -54.6610 H         1 UNK         0.0892 
     68 H68        38.2935  -45.8463  -53.7710 H         1 UNK         0.0892 
     69 H69        38.0360  -47.4022  -52.9778 H         1 UNK         0.0892 
     70 H70        36.3575  -44.8547  -54.3327 H         1 UNK         0.3107 
     71 H71        34.4065  -46.0648  -55.9457 H         1 UNK         0.0773 
     72 H72        33.1232  -43.9876  -55.6960 H         1 UNK         0.0680 
     73 H73        34.7921  -43.6639  -56.0541 H         1 UNK         0.0680 
     74 H74        33.1813  -40.8070  -53.6313 H         1 UNK         0.0650 
     75 H75        33.2450  -41.3276  -55.2966 H         1 UNK         0.0650 
     76 H76        31.8024  -43.1496  -52.3087 H         1 UNK         0.1397 
     77 H77        27.7799  -42.8735  -53.7651 H         1 UNK         0.1363 
     78 H78        30.9773  -41.0747  -55.9726 H         1 UNK         0.1355 
     79 H79        27.4391  -40.9361  -55.4311 H         1 UNK         0.0707 
     80 H80        28.6821  -40.6163  -56.6042 H         1 UNK         0.0707 
     81 H81        29.4386  -41.9473  -58.3536 H         1 UNK         0.1034 
     82 H82        28.1267  -42.5033  -59.3387 H         1 UNK         0.1034 
     83 H83        29.9282  -44.0165  -59.6225 H         1 UNK         0.0482 
     84 H84        31.1161  -45.4002  -55.9908 H         1 UNK         0.3460 
     85 H85        29.5134  -45.7416  -56.5978 H         1 UNK         0.3460 
     86 H86        27.5686  -45.1077  -58.3360 H         1 UNK         0.2989 
     87 H87        26.8811  -47.1016  -60.2538 H         1 UNK         0.0559 
     88 H88        28.8833  -49.1800  -59.2299 H         1 UNK         0.0848 
     89 H89        28.5866  -48.7682  -60.9146 H         1 UNK         0.0848 
     90 H90        27.3243  -49.5339  -59.9669 H         1 UNK         0.0848 
     91 H91        27.4332  -48.1296  -57.5162 H         1 UNK         0.3144 
     92 H92        25.5760  -46.8108  -55.7856 H         1 UNK         0.0727 
     93 H93        23.1164  -47.9441  -57.2186 H         1 UNK         0.0790 
     94 H94        23.3173  -46.3001  -56.6316 H         1 UNK         0.0790 
     95 H95        23.2262  -47.6276  -55.4872 H         1 UNK         0.0790 
     96 H96        26.0717  -48.8780  -55.2422 H         1 UNK         0.3215 
     97 H97        25.2605  -51.9676  -55.9494 H         1 UNK         0.0863 
     98 H98        27.7059  -51.2368  -57.6560 H         1 UNK         0.0808 
     99 H99        26.3296  -52.1986  -58.1767 H         1 UNK         0.0808 
    100 H100       27.4069  -52.8195  -56.9383 H         1 UNK         0.0808 
    101 H101       27.7303  -50.4260  -55.2597 H         1 UNK         0.3118 
    102 H102       26.9767  -50.4754  -51.8388 H         1 UNK         0.0546 
    103 H103       29.2004  -51.5390  -51.4733 H         1 UNK         0.0828 
    104 H104       29.1794  -52.1868  -53.1132 H         1 UNK         0.0828 
    105 H105       28.0059  -52.7434  -51.9289 H         1 UNK         0.0828 
    106 H106       29.3578  -49.6650  -53.1098 H         1 UNK         0.3005 
    107 H107       28.2455  -46.6591  -54.6415 H         1 UNK         0.1257 
    108 H108       30.2226  -45.8822  -53.1736 H         1 UNK         0.0775 
    109 H109       29.7476  -47.0914  -52.0069 H         1 UNK         0.0775 
    110 H110       28.6797  -43.1890  -51.0659 H         1 UNK         0.0840 
    111 H111       30.0749  -44.2393  -51.0883 H         1 UNK         0.0840 
    112 H112       30.8330  -47.6483  -54.4949 H         1 UNK         0.2987 
    113 H113       30.7613  -50.2135  -56.9375 H         1 UNK         0.0785 
    114 H114       32.4539  -48.8415  -58.0775 H         1 UNK         0.0798 
    115 H115       30.8708  -48.1354  -58.3308 H         1 UNK         0.0798 
    116 H116       31.9756  -47.4093  -57.1736 H         1 UNK         0.0798 
    117 H117       32.7419  -48.7682  -55.3217 H         1 UNK         0.3079 
    118 H118       32.8573  -51.2328  -52.7673 H         1 UNK         0.0794 
    119 H119       35.2701  -51.2334  -53.3718 H         1 UNK         0.0786 
    120 H120       34.8990  -50.5514  -54.9542 H         1 UNK         0.0786 
    121 H121       34.3450  -52.1674  -54.5367 H         1 UNK         0.0786 
    122 H122       34.3024  -48.7863  -53.3045 H         1 UNK         0.3032 
    123 H123       32.0175  -46.5980  -51.6984 H         1 UNK         0.1094 
    124 H124       34.6391  -47.6723  -50.5339 H         1 UNK         0.0794 
    125 H125       33.8631  -46.1430  -50.1180 H         1 UNK         0.0794 
    126 H126       33.0870  -47.6626  -49.7076 H         1 UNK         0.0794 
    127 H127       34.6707  -46.1315  -52.5071 H         1 UNK         0.3016 
@<TRIPOS>BOND
     1    1    2 1    
     2    1   67 1    
     3    1   68 1    
     4    1   69 1    
     5    2    3 2    
     6    2    4 am   BACKBONE|DICT|INTERRES
     7    4    5 1    
     8    4   70 1    
     9    5    6 1    
    10    5   65 1    
    11    5   71 1    
    12    6    7 1    
    13    6   72 1    
    14    6   73 1    
    15    7    8 1    
    16    8    9 1    
    17    8   74 1    
    18    8   75 1    
    19    9   10 ar   
    20    9   14 ar   
    21   10   11 ar   
    22   10   76 1    
    23   11   12 ar   
    24   11   48 1    
    25   12   13 ar   
    26   12   77 1    
    27   13   14 ar   
    28   13   15 1    
    29   14   78 1    
    30   15   16 1    
    31   15   79 1    
    32   15   80 1    
    33   16   17 1    
    34   17   18 1    
    35   17   81 1    
    36   17   82 1    
    37   18   19 1    
    38   18   22 1    
    39   18   83 1    
    40   19   20 am   BACKBONE|DICT|INTERRES
    41   19   21 2    
    42   20   84 1    
    43   20   85 1    
    44   22   23 am   BACKBONE|DICT|INTERRES
    45   22   86 1    
    46   23   24 2    
    47   23   25 1    
    48   25   26 1    
    49   25   27 1    
    50   25   87 1    
    51   26   88 1    
    52   26   89 1    
    53   26   90 1    
    54   27   28 am   BACKBONE|DICT|INTERRES
    55   27   91 1    
    56   28   29 2    
    57   28   30 1    
    58   30   31 1    
    59   30   32 1    
    60   30   92 1    
    61   31   93 1    
    62   31   94 1    
    63   31   95 1    
    64   32   33 am   BACKBONE|DICT|INTERRES
    65   32   96 1    
    66   33   34 2    
    67   33   35 1    
    68   35   36 1    
    69   35   37 1    
    70   35   97 1    
    71   36   98 1    
    72   36   99 1    
    73   36  100 1    
    74   37   38 am   BACKBONE|DICT|INTERRES
    75   37  101 1    
    76   38   39 2    
    77   38   40 1    
    78   40   41 1    
    79   40   42 1    
    80   40  102 1    
    81   41  103 1    
    82   41  104 1    
    83   41  105 1    
    84   42   43 am   BACKBONE|DICT|INTERRES
    85   42  106 1    
    86   43   44 2    
    87   43   45 1    
    88   45   46 1    
    89   45   49 1    
    90   45  107 1    
    91   46   47 1    
    92   46  108 1    
    93   46  109 1    
    94   47   48 1    
    95   48  110 1    
    96   48  111 1    
    97   49   50 am   BACKBONE|DICT|INTERRES
    98   49  112 1    
    99   50   51 2    
   100   50   52 1    
   101   52   53 1    
   102   52   54 1    
   103   52  113 1    
   104   53  114 1    
   105   53  115 1    
   106   53  116 1    
   107   54   55 am   BACKBONE|DICT|INTERRES
   108   54  117 1    
   109   55   56 2    
   110   55   57 1    
   111   57   58 1    
   112   57   59 1    
   113   57  118 1    
   114   58  119 1    
   115   58  120 1    
   116   58  121 1    
   117   59   60 am   BACKBONE|DICT|INTERRES
   118   59  122 1    
   119   60   61 2    
   120   60   62 1    
   121   62   63 1    
   122   62   64 1    
   123   62  123 1    
   124   63  124 1    
   125   63  125 1    
   126   63  126 1    
   127   64   65 am   BACKBONE|DICT|INTERRES
   128   64  127 1    
   129   65   66 2    
@<TRIPOS>SUBSTRUCTURE
     1 UNK         1 GROUP             0       ****    0 ROOT    
