@<TRIPOS>MOLECULE
3R134
127   129    1
SMALL
USER_CHARGES


@<TRIPOS>ATOM
      1 CA         33.7040  -45.4039  -50.4252 C.3       0 UNK        -0.1968 
      2 C          33.9376  -45.8839  -51.8490 C.2       0 UNK         0.4852 
      3 O          33.0633  -46.5376  -52.4197 O.2       0 UNK        -0.5359 
      4 N          35.1171  -45.5811  -52.4167 N.am      1 UNK        -0.4300 
      5 CA         35.5232  -45.8950  -53.7976 C.3       1 UNK         0.0863 
      6 C6         34.7348  -45.0583  -54.8454 C.3       11 UNK        -0.0953 
      7 S7         35.1915  -43.2926  -54.8610 S.3       11 UNK        -0.2369 
      8 C8         34.0206  -42.5305  -53.6842 C.3       11 UNK         0.0226 
      9 C9         32.5430  -42.7479  -54.0047 C.ar      11 UNK        -0.0699 
     10 C10        31.6600  -43.0660  -52.9684 C.ar      11 UNK        -0.0804 
     11 C11        30.2957  -43.2448  -53.2150 C.ar      11 UNK        -0.0871 
     12 C12        29.8105  -43.0964  -54.5164 C.ar      11 UNK        -0.1008 
     13 C13        30.6772  -42.7623  -55.5618 C.ar      11 UNK        -0.0735 
     14 C14        32.0415  -42.5900  -55.3023 C.ar      11 UNK        -0.0945 
     15 C15        30.1257  -42.5702  -56.9650 C.3       11 UNK         0.0169 
     16 S16        29.8435  -44.1709  -57.7717 S.3       11 UNK        -0.2669 
     17 C17        28.8621  -43.6631  -59.2254 C.3       11 UNK        -0.0850 
     18 CA         27.3297  -43.6260  -58.9655 C.3       10 UNK         0.0855 
     19 C          26.5701  -43.3175  -60.2895 C.2       10 UNK         0.5543 
     20 N          25.8423  -44.2628  -60.8734 N.am      10 UNK        -0.7343 
     21 O          26.6498  -42.2004  -60.7947 O.2       10 UNK        -0.5027 
     22 N          26.8757  -44.8277  -58.2519 N.am      10 UNK        -0.4495 
     23 C          25.6675  -45.0335  -57.7124 C.2       10 UNK         0.4903 
     24 O          24.7654  -44.1950  -57.7104 O.2       10 UNK        -0.4860 
     25 CA         25.4424  -46.4072  -57.0462 C.3       9 UNK         0.0227 
     26 CB         23.9828  -46.8956  -57.1547 C.3       9 UNK        -0.1964 
     27 N          26.3866  -47.4367  -57.5045 N.am      9 UNK        -0.4231 
     28 C          26.5181  -47.9283  -58.7472 C.2       9 UNK         0.5014 
     29 O          25.7853  -47.6241  -59.6895 O.2       9 UNK        -0.5270 
     30 CA         27.6982  -48.8763  -59.0006 C.3       8 UNK         0.0284 
     31 CB         28.9414  -48.0694  -59.4167 C.3       8 UNK        -0.1977 
     32 N          28.0220  -49.6826  -57.8199 N.am      8 UNK        -0.4342 
     33 C          27.9314  -51.0168  -57.7620 C.2       8 UNK         0.5039 
     34 O          27.5564  -51.7226  -58.6998 O.2       8 UNK        -0.5547 
     35 CA         28.3413  -51.6946  -56.4441 C.3       7 UNK         0.0281 
     36 CB         29.8507  -51.9869  -56.4339 C.3       7 UNK        -0.1963 
     37 N          27.9785  -50.9420  -55.2397 N.am      7 UNK        -0.4444 
     38 C          26.7203  -50.7993  -54.7951 C.2       7 UNK         0.5104 
     39 O          25.7287  -51.1959  -55.4076 O.2       7 UNK        -0.5100 
     40 CA         26.5299  -50.1295  -53.4262 C.3       6 UNK         0.0396 
     41 CB         26.8542  -51.1212  -52.2967 C.3       6 UNK        -0.1801 
     42 N          27.3794  -48.9498  -53.2865 N.am      6 UNK        -0.4747 
     43 C          26.9594  -47.6798  -53.3881 C.2       6 UNK         0.5012 
     44 O          25.7848  -47.3518  -53.5543 O.2       6 UNK        -0.5003 
     45 CA         28.0449  -46.5856  -53.2811 C.3       5 UNK         0.0782 
     46 C46        28.1734  -46.1418  -51.7968 C.3       11 UNK        -0.0868 
     47 S47        29.6886  -45.2142  -51.3766 S.3       11 UNK        -0.2515 
     48 C48        29.3517  -43.5648  -52.0646 C.3       11 UNK         0.0199 
     49 N          29.3292  -46.9986  -53.8536 N.am      5 UNK        -0.4607 
     50 C          29.5467  -47.4823  -55.0839 C.2       4 UNK         0.5031 
     51 O          28.6734  -47.6234  -55.9392 O.2       4 UNK        -0.5119 
     52 CA         30.9700  -47.9713  -55.3820 C.3       4 UNK         0.0263 
     53 CB         31.7674  -46.8507  -56.0579 C.3       4 UNK        -0.1967 
     54 N          31.6683  -48.4527  -54.1822 N.am      4 UNK        -0.4237 
     55 C          31.2628  -49.4929  -53.4355 C.2       3 UNK         0.4908 
     56 O          30.2533  -50.1561  -53.6913 O.2       3 UNK        -0.5102 
     57 CA         32.0739  -49.7980  -52.1627 C.3       3 UNK         0.0241 
     58 CB         31.7914  -51.2044  -51.5910 C.3       3 UNK        -0.1971 
     59 N          33.5137  -49.5576  -52.3177 N.am      3 UNK        -0.4139 
     60 C          34.3835  -50.2145  -53.1005 C.2       2 UNK         0.5016 
     61 O          34.0877  -51.1741  -53.8148 O.2       2 UNK        -0.5319 
     62 CA         35.8369  -49.6932  -53.0610 C.3       2 UNK         0.0286 
     63 CB         36.7411  -50.3245  -54.1427 C.3       2 UNK        -0.1963 
     64 N          35.9095  -48.2235  -53.0948 N.am      2 UNK        -0.4790 
     65 C          35.4841  -47.4185  -54.0838 C.2       1 UNK         0.5024 
     66 O          35.0559  -47.8369  -55.1593 O.2       1 UNK        -0.4888 
     67 H67        33.7041  -46.2509  -49.7402 H         1 UNK         0.0892 
     68 H68        32.7361  -44.9097  -50.3507 H         1 UNK         0.0892 
     69 H69        34.4696  -44.6998  -50.1010 H         1 UNK         0.0892 
     70 H70        35.7986  -45.0615  -51.8810 H         1 UNK         0.3107 
     71 H71        36.5762  -45.6211  -53.8802 H         1 UNK         0.0773 
     72 H72        33.6630  -45.1560  -54.6884 H         1 UNK         0.0680 
     73 H73        34.9245  -45.4178  -55.8580 H         1 UNK         0.0680 
     74 H74        34.2541  -42.8969  -52.6843 H         1 UNK         0.0650 
     75 H75        34.2099  -41.4568  -53.6628 H         1 UNK         0.0650 
     76 H76        32.0315  -43.1723  -51.9589 H         1 UNK         0.1397 
     77 H77        28.7567  -43.2296  -54.7199 H         1 UNK         0.1363 
     78 H78        32.7126  -42.3283  -56.1086 H         1 UNK         0.1355 
     79 H79        30.8082  -41.9733  -57.5719 H         1 UNK         0.0707 
     80 H80        29.1876  -42.0155  -56.9136 H         1 UNK         0.0707 
     81 H81        29.0897  -44.3679  -60.0279 H         1 UNK         0.1034 
     82 H82        29.2152  -42.6910  -59.5753 H         1 UNK         0.1034 
     83 H83        27.1300  -42.7843  -58.2998 H         1 UNK         0.0482 
     84 H84        25.7729  -45.1822  -60.4613 H         1 UNK         0.3460 
     85 H85        25.3537  -44.0541  -61.7297 H         1 UNK         0.3460 
     86 H86        27.5624  -45.5617  -58.1671 H         1 UNK         0.2989 
     87 H87        25.6592  -46.2567  -55.9889 H         1 UNK         0.0559 
     88 H88        23.8521  -47.8604  -56.6643 H         1 UNK         0.0848 
     89 H89        23.6636  -46.9981  -58.1922 H         1 UNK         0.0848 
     90 H90        23.2995  -46.1950  -56.6733 H         1 UNK         0.0848 
     91 H91        27.1153  -47.6680  -56.8318 H         1 UNK         0.3144 
     92 H92        27.4178  -49.5170  -59.8391 H         1 UNK         0.0727 
     93 H93        29.7709  -48.7288  -59.6722 H         1 UNK         0.0790 
     94 H94        29.2802  -47.4013  -58.6239 H         1 UNK         0.0790 
     95 H95        28.7342  -47.4556  -60.2946 H         1 UNK         0.0790 
     96 H96        28.3287  -49.1745  -56.9955 H         1 UNK         0.3215 
     97 H97        27.8196  -52.6534  -56.4003 H         1 UNK         0.0863 
     98 H98        30.1428  -52.5368  -55.5389 H         1 UNK         0.0808 
     99 H99        30.4420  -51.0725  -56.4697 H         1 UNK         0.0808 
    100 H100       30.1366  -52.5933  -57.2945 H         1 UNK         0.0808 
    101 H101       28.7507  -50.6178  -54.6606 H         1 UNK         0.3118 
    102 H102       25.4779  -49.8511  -53.3341 H         1 UNK         0.0546 
    103 H103       26.2391  -52.0185  -52.3764 H         1 UNK         0.0828 
    104 H104       26.6596  -50.6820  -51.3182 H         1 UNK         0.0828 
    105 H105       27.8981  -51.4375  -52.3190 H         1 UNK         0.0828 
    106 H106       28.3728  -49.1186  -53.1837 H         1 UNK         0.3005 
    107 H107       27.7037  -45.7326  -53.8711 H         1 UNK         0.1257 
    108 H108       28.1747  -47.0127  -51.1374 H         1 UNK         0.0775 
    109 H109       27.3029  -45.5529  -51.5015 H         1 UNK         0.0775 
    110 H110       28.3102  -43.4884  -52.3802 H         1 UNK         0.0840 
    111 H111       29.4846  -42.8217  -51.2770 H         1 UNK         0.0840 
    112 H112       30.1257  -46.8916  -53.2402 H         1 UNK         0.2987 
    113 H113       30.9001  -48.8067  -56.0796 H         1 UNK         0.0785 
    114 H114       31.7403  -45.9315  -55.4720 H         1 UNK         0.0798 
    115 H115       31.3456  -46.6196  -57.0361 H         1 UNK         0.0798 
    116 H116       32.8063  -47.1316  -56.2194 H         1 UNK         0.0798 
    117 H117       32.4461  -47.8942  -53.8438 H         1 UNK         0.3079 
    118 H118       31.7328  -49.0737  -51.4214 H         1 UNK         0.0794 
    119 H119       32.0305  -51.9895  -52.3088 H         1 UNK         0.0786 
    120 H120       30.7380  -51.3157  -51.3311 H         1 UNK         0.0786 
    121 H121       32.3685  -51.3887  -50.6850 H         1 UNK         0.0786 
    122 H122       33.8588  -48.7411  -51.8321 H         1 UNK         0.3032 
    123 H123       36.2344  -49.9992  -52.0915 H         1 UNK         0.1094 
    124 H124       36.3708  -50.1303  -55.1496 H         1 UNK         0.0794 
    125 H125       37.7605  -49.9442  -54.0802 H         1 UNK         0.0794 
    126 H126       36.7923  -51.4073  -54.0225 H         1 UNK         0.0794 
    127 H127       36.2512  -47.7821  -52.2516 H         1 UNK         0.3016 
@<TRIPOS>BOND
     1    1    2 1    
     2    1   67 1    
     3    1   68 1    
     4    1   69 1    
     5    2    3 2    
     6    2    4 am   BACKBONE|DICT|INTERRES
     7    4    5 1    
     8    4   70 1    
     9    5    6 1    
    10    5   65 1    
    11    5   71 1    
    12    6    7 1    
    13    6   72 1    
    14    6   73 1    
    15    7    8 1    
    16    8    9 1    
    17    8   74 1    
    18    8   75 1    
    19    9   10 ar   
    20    9   14 ar   
    21   10   11 ar   
    22   10   76 1    
    23   11   12 ar   
    24   11   48 1    
    25   12   13 ar   
    26   12   77 1    
    27   13   14 ar   
    28   13   15 1    
    29   14   78 1    
    30   15   16 1    
    31   15   79 1    
    32   15   80 1    
    33   16   17 1    
    34   17   18 1    
    35   17   81 1    
    36   17   82 1    
    37   18   19 1    
    38   18   22 1    
    39   18   83 1    
    40   19   20 am   BACKBONE|DICT|INTERRES
    41   19   21 2    
    42   20   84 1    
    43   20   85 1    
    44   22   23 am   BACKBONE|DICT|INTERRES
    45   22   86 1    
    46   23   24 2    
    47   23   25 1    
    48   25   26 1    
    49   25   27 1    
    50   25   87 1    
    51   26   88 1    
    52   26   89 1    
    53   26   90 1    
    54   27   28 am   BACKBONE|DICT|INTERRES
    55   27   91 1    
    56   28   29 2    
    57   28   30 1    
    58   30   31 1    
    59   30   32 1    
    60   30   92 1    
    61   31   93 1    
    62   31   94 1    
    63   31   95 1    
    64   32   33 am   BACKBONE|DICT|INTERRES
    65   32   96 1    
    66   33   34 2    
    67   33   35 1    
    68   35   36 1    
    69   35   37 1    
    70   35   97 1    
    71   36   98 1    
    72   36   99 1    
    73   36  100 1    
    74   37   38 am   BACKBONE|DICT|INTERRES
    75   37  101 1    
    76   38   39 2    
    77   38   40 1    
    78   40   41 1    
    79   40   42 1    
    80   40  102 1    
    81   41  103 1    
    82   41  104 1    
    83   41  105 1    
    84   42   43 am   BACKBONE|DICT|INTERRES
    85   42  106 1    
    86   43   44 2    
    87   43   45 1    
    88   45   46 1    
    89   45   49 1    
    90   45  107 1    
    91   46   47 1    
    92   46  108 1    
    93   46  109 1    
    94   47   48 1    
    95   48  110 1    
    96   48  111 1    
    97   49   50 am   BACKBONE|DICT|INTERRES
    98   49  112 1    
    99   50   51 2    
   100   50   52 1    
   101   52   53 1    
   102   52   54 1    
   103   52  113 1    
   104   53  114 1    
   105   53  115 1    
   106   53  116 1    
   107   54   55 am   BACKBONE|DICT|INTERRES
   108   54  117 1    
   109   55   56 2    
   110   55   57 1    
   111   57   58 1    
   112   57   59 1    
   113   57  118 1    
   114   58  119 1    
   115   58  120 1    
   116   58  121 1    
   117   59   60 am   BACKBONE|DICT|INTERRES
   118   59  122 1    
   119   60   61 2    
   120   60   62 1    
   121   62   63 1    
   122   62   64 1    
   123   62  123 1    
   124   63  124 1    
   125   63  125 1    
   126   63  126 1    
   127   64   65 am   BACKBONE|DICT|INTERRES
   128   64  127 1    
   129   65   66 2    
@<TRIPOS>SUBSTRUCTURE
     1 UNK         1 GROUP             0       ****    0 ROOT    
