@<TRIPOS>MOLECULE
3R134
127   129    1
SMALL
USER_CHARGES


@<TRIPOS>ATOM
      1 CA         32.8504  -46.5103  -50.9904 C.3       0 UNK        -0.1968 
      2 C          34.0413  -45.9560  -51.7574 C.2       0 UNK         0.4852 
      3 O          34.7888  -45.1369  -51.2199 O.2       0 UNK        -0.5359 
      4 N          34.2072  -46.3979  -53.0078 N.am      1 UNK        -0.4300 
      5 CA         35.2979  -46.0253  -53.9124 C.3       1 UNK         0.0863 
      6 C6         34.7825  -45.3879  -55.2391 C.3       11 UNK        -0.0953 
      7 S7         33.5529  -44.0619  -54.9853 S.3       11 UNK        -0.2369 
      8 C8         32.0447  -45.0038  -55.3824 C.3       11 UNK         0.0226 
      9 C9         30.7791  -44.4096  -54.7855 C.ar      11 UNK        -0.0699 
     10 C10        30.6759  -44.2091  -53.4063 C.ar      11 UNK        -0.0804 
     11 C11        29.4769  -43.7678  -52.8399 C.ar      11 UNK        -0.0871 
     12 C12        28.3770  -43.5132  -53.6653 C.ar      11 UNK        -0.1008 
     13 C13        28.4679  -43.7146  -55.0456 C.ar      11 UNK        -0.0735 
     14 C14        29.6731  -44.1524  -55.6005 C.ar      11 UNK        -0.0945 
     15 C15        27.2554  -43.5078  -55.9381 C.3       11 UNK         0.0169 
     16 S16        27.4111  -41.9869  -56.9204 S.3       11 UNK        -0.2669 
     17 C17        25.8980  -42.0750  -57.9412 C.3       11 UNK        -0.0850 
     18 CA         26.0981  -42.4076  -59.4509 C.3       10 UNK         0.0855 
     19 C          27.0450  -41.4288  -60.2138 C.2       10 UNK         0.5543 
     20 N          27.8389  -41.8833  -61.1749 N.am      10 UNK        -0.7343 
     21 O          27.0168  -40.2245  -59.9711 O.2       10 UNK        -0.5027 
     22 N          26.2483  -43.8507  -59.7269 N.am      10 UNK        -0.4495 
     23 C          27.3268  -44.6285  -59.5651 C.2       10 UNK         0.4903 
     24 O          28.4219  -44.2434  -59.1536 O.2       10 UNK        -0.4860 
     25 CA         27.1561  -46.0866  -60.0225 C.3       9 UNK         0.0227 
     26 CB         27.4170  -46.2055  -61.5338 C.3       9 UNK        -0.1964 
     27 N          28.0662  -46.9864  -59.3133 N.am      9 UNK        -0.4231 
     28 C          27.8640  -47.4537  -58.0759 C.2       9 UNK         0.5014 
     29 O          26.8635  -47.2030  -57.3995 O.2       9 UNK        -0.5270 
     30 CA         28.9908  -48.3291  -57.4990 C.3       8 UNK         0.0284 
     31 CB         30.0246  -47.4626  -56.7668 C.3       8 UNK        -0.1977 
     32 N          28.4924  -49.3396  -56.5689 N.am      8 UNK        -0.4342 
     33 C          27.7584  -50.4071  -56.9051 C.2       8 UNK         0.5039 
     34 O          27.4394  -50.6863  -58.0621 O.2       8 UNK        -0.5547 
     35 CA         27.3199  -51.3309  -55.7600 C.3       7 UNK         0.0281 
     36 CB         28.4671  -52.2755  -55.3615 C.3       7 UNK        -0.1963 
     37 N          26.8951  -50.5692  -54.5840 N.am      7 UNK        -0.4444 
     38 C          25.6218  -50.3016  -54.2649 C.2       7 UNK         0.5104 
     39 O          24.6576  -50.6608  -54.9418 O.2       7 UNK        -0.5100 
     40 CA         25.3619  -49.5363  -52.9525 C.3       6 UNK         0.0396 
     41 CB         24.8999  -50.5087  -51.8549 C.3       6 UNK        -0.1801 
     42 N          26.5305  -48.7981  -52.4675 N.am      6 UNK        -0.4747 
     43 C          26.9125  -47.5951  -52.9199 C.2       6 UNK         0.5012 
     44 O          26.2794  -46.9485  -53.7536 O.2       6 UNK        -0.5003 
     45 CA         28.2242  -47.0153  -52.3466 C.3       5 UNK         0.0782 
     46 C46        27.9024  -46.0429  -51.1815 C.3       11 UNK        -0.0868 
     47 S47        29.3859  -45.2332  -50.4914 S.3       11 UNK        -0.2515 
     48 C48        29.3600  -43.6156  -51.3311 C.3       11 UNK         0.0199 
     49 N          29.2121  -48.0349  -51.9565 N.am      5 UNK        -0.4607 
     50 C          29.7314  -48.9670  -52.7651 C.2       4 UNK         0.5031 
     51 O          29.3514  -49.1576  -53.9211 O.2       4 UNK        -0.5119 
     52 CA         30.8001  -49.8875  -52.1535 C.3       4 UNK         0.0263 
     53 CB         30.1242  -51.0243  -51.3691 C.3       4 UNK        -0.1967 
     54 N          31.6870  -50.4750  -53.1627 N.am      4 UNK        -0.4237 
     55 C          32.5280  -49.7874  -53.9455 C.2       3 UNK         0.4908 
     56 O          32.6740  -48.5612  -53.8973 O.2       3 UNK        -0.5102 
     57 CA         33.3464  -50.6110  -54.9500 C.3       3 UNK         0.0241 
     58 CB         32.4986  -50.9841  -56.1788 C.3       3 UNK        -0.1971 
     59 N          34.4835  -49.8026  -55.3760 N.am      3 UNK        -0.4139 
     60 C          35.7631  -50.1891  -55.4451 C.2       2 UNK         0.5016 
     61 O          36.1412  -51.3507  -55.2881 O.2       2 UNK        -0.5319 
     62 CA         36.8044  -49.0831  -55.7222 C.3       2 UNK         0.0286 
     63 CB         37.2258  -49.0978  -57.2006 C.3       2 UNK        -0.1963 
     64 N          36.3101  -47.7438  -55.3755 N.am      2 UNK        -0.4790 
     65 C          36.1364  -47.3048  -54.1191 C.2       1 UNK         0.5024 
     66 O          36.5671  -47.9103  -53.1350 O.2       1 UNK        -0.4888 
     67 H67        33.1580  -47.3547  -50.3745 H         1 UNK         0.0892 
     68 H68        32.4306  -45.7451  -50.3382 H         1 UNK         0.0892 
     69 H69        32.0627  -46.8420  -51.6667 H         1 UNK         0.0892 
     70 H70        33.5885  -47.1312  -53.3547 H         1 UNK         0.3107 
     71 H71        35.9558  -45.3000  -53.4297 H         1 UNK         0.0773 
     72 H72        34.3340  -46.1354  -55.8956 H         1 UNK         0.0680 
     73 H73        35.6191  -44.9600  -55.7943 H         1 UNK         0.0680 
     74 H74        32.1363  -46.0232  -55.0051 H         1 UNK         0.0650 
     75 H75        31.9671  -45.0799  -56.4676 H         1 UNK         0.0650 
     76 H76        31.5205  -44.4287  -52.7684 H         1 UNK         0.1397 
     77 H77        27.4419  -43.1856  -53.2319 H         1 UNK         0.1363 
     78 H78        29.7323  -44.3215  -56.6676 H         1 UNK         0.1355 
     79 H79        27.1466  -44.3669  -56.6015 H         1 UNK         0.0707 
     80 H80        26.3427  -43.4617  -55.3419 H         1 UNK         0.0707 
     81 H81        25.1969  -42.7836  -57.4980 H         1 UNK         0.1034 
     82 H82        25.4052  -41.1049  -57.8549 H         1 UNK         0.1034 
     83 H83        25.1328  -42.1908  -59.9101 H         1 UNK         0.0482 
     84 H84        27.8852  -42.8701  -61.3690 H         1 UNK         0.3460 
     85 H85        28.4313  -41.2388  -61.6742 H         1 UNK         0.3460 
     86 H86        25.4233  -44.2831  -60.1177 H         1 UNK         0.2989 
     87 H87        26.1290  -46.4005  -59.8228 H         1 UNK         0.0559 
     88 H88        28.4302  -45.8973  -61.7957 H         1 UNK         0.0848 
     89 H89        26.7294  -45.5785  -62.1030 H         1 UNK         0.0848 
     90 H90        27.2778  -47.2295  -61.8813 H         1 UNK         0.0848 
     91 H91        28.9402  -47.1945  -59.7742 H         1 UNK         0.3144 
     92 H92        29.4890  -48.8474  -58.3211 H         1 UNK         0.0727 
     93 H93        30.8628  -48.0566  -56.4031 H         1 UNK         0.0790 
     94 H94        29.5796  -46.9619  -55.9062 H         1 UNK         0.0790 
     95 H95        30.4289  -46.6952  -57.4274 H         1 UNK         0.0790 
     96 H96        28.7300  -49.2018  -55.5878 H         1 UNK         0.3215 
     97 H97        26.4938  -51.9447  -56.1262 H         1 UNK         0.0863 
     98 H98        29.3235  -51.7296  -54.9648 H         1 UNK         0.0808 
     99 H99        28.8153  -52.8511  -56.2203 H         1 UNK         0.0808 
    100 H100       28.1454  -52.9886  -54.6024 H         1 UNK         0.0808 
    101 H101       27.6327  -50.1610  -54.0212 H         1 UNK         0.3118 
    102 H102       24.5503  -48.8297  -53.1395 H         1 UNK         0.0546 
    103 H103       25.6668  -51.2476  -51.6189 H         1 UNK         0.0828 
    104 H104       24.0082  -51.0544  -52.1670 H         1 UNK         0.0828 
    105 H105       24.6471  -49.9798  -50.9358 H         1 UNK         0.0828 
    106 H106       27.1018  -49.2503  -51.7681 H         1 UNK         0.3005 
    107 H107       28.6765  -46.4432  -53.1594 H         1 UNK         0.1257 
    108 H108       27.4093  -46.5777  -50.3675 H         1 UNK         0.0775 
    109 H109       27.1976  -45.2733  -51.5027 H         1 UNK         0.0775 
    110 H110       28.4485  -43.0807  -51.0596 H         1 UNK         0.0840 
    111 H111       30.1907  -43.0112  -50.9638 H         1 UNK         0.0840 
    112 H112       29.5611  -47.9560  -51.0122 H         1 UNK         0.2987 
    113 H113       31.4146  -49.2997  -51.4690 H         1 UNK         0.0785 
    114 H114       29.4856  -50.6328  -50.5760 H         1 UNK         0.0798 
    115 H115       29.4997  -51.6445  -52.0140 H         1 UNK         0.0798 
    116 H116       30.8616  -51.6716  -50.8938 H         1 UNK         0.0798 
    117 H117       31.6175  -51.4737  -53.2904 H         1 UNK         0.3079 
    118 H118       33.6940  -51.5185  -54.4517 H         1 UNK         0.0794 
    119 H119       31.6410  -51.5957  -55.8973 H         1 UNK         0.0786 
    120 H120       33.0817  -51.5585  -56.8989 H         1 UNK         0.0786 
    121 H121       32.1157  -50.1007  -56.6905 H         1 UNK         0.0786 
    122 H122       34.2792  -48.8163  -55.4520 H         1 UNK         0.3032 
    123 H123       37.6833  -49.3013  -55.1107 H         1 UNK         0.1094 
    124 H124       37.6251  -50.0735  -57.4819 H         1 UNK         0.0794 
    125 H125       36.3861  -48.8865  -57.8640 H         1 UNK         0.0794 
    126 H126       38.0055  -48.3620  -57.3986 H         1 UNK         0.0794 
    127 H127       35.9696  -47.1773  -56.1395 H         1 UNK         0.3016 
@<TRIPOS>BOND
     1    1    2 1    
     2    1   67 1    
     3    1   68 1    
     4    1   69 1    
     5    2    3 2    
     6    2    4 am   BACKBONE|DICT|INTERRES
     7    4    5 1    
     8    4   70 1    
     9    5    6 1    
    10    5   65 1    
    11    5   71 1    
    12    6    7 1    
    13    6   72 1    
    14    6   73 1    
    15    7    8 1    
    16    8    9 1    
    17    8   74 1    
    18    8   75 1    
    19    9   10 ar   
    20    9   14 ar   
    21   10   11 ar   
    22   10   76 1    
    23   11   12 ar   
    24   11   48 1    
    25   12   13 ar   
    26   12   77 1    
    27   13   14 ar   
    28   13   15 1    
    29   14   78 1    
    30   15   16 1    
    31   15   79 1    
    32   15   80 1    
    33   16   17 1    
    34   17   18 1    
    35   17   81 1    
    36   17   82 1    
    37   18   19 1    
    38   18   22 1    
    39   18   83 1    
    40   19   20 am   BACKBONE|DICT|INTERRES
    41   19   21 2    
    42   20   84 1    
    43   20   85 1    
    44   22   23 am   BACKBONE|DICT|INTERRES
    45   22   86 1    
    46   23   24 2    
    47   23   25 1    
    48   25   26 1    
    49   25   27 1    
    50   25   87 1    
    51   26   88 1    
    52   26   89 1    
    53   26   90 1    
    54   27   28 am   BACKBONE|DICT|INTERRES
    55   27   91 1    
    56   28   29 2    
    57   28   30 1    
    58   30   31 1    
    59   30   32 1    
    60   30   92 1    
    61   31   93 1    
    62   31   94 1    
    63   31   95 1    
    64   32   33 am   BACKBONE|DICT|INTERRES
    65   32   96 1    
    66   33   34 2    
    67   33   35 1    
    68   35   36 1    
    69   35   37 1    
    70   35   97 1    
    71   36   98 1    
    72   36   99 1    
    73   36  100 1    
    74   37   38 am   BACKBONE|DICT|INTERRES
    75   37  101 1    
    76   38   39 2    
    77   38   40 1    
    78   40   41 1    
    79   40   42 1    
    80   40  102 1    
    81   41  103 1    
    82   41  104 1    
    83   41  105 1    
    84   42   43 am   BACKBONE|DICT|INTERRES
    85   42  106 1    
    86   43   44 2    
    87   43   45 1    
    88   45   46 1    
    89   45   49 1    
    90   45  107 1    
    91   46   47 1    
    92   46  108 1    
    93   46  109 1    
    94   47   48 1    
    95   48  110 1    
    96   48  111 1    
    97   49   50 am   BACKBONE|DICT|INTERRES
    98   49  112 1    
    99   50   51 2    
   100   50   52 1    
   101   52   53 1    
   102   52   54 1    
   103   52  113 1    
   104   53  114 1    
   105   53  115 1    
   106   53  116 1    
   107   54   55 am   BACKBONE|DICT|INTERRES
   108   54  117 1    
   109   55   56 2    
   110   55   57 1    
   111   57   58 1    
   112   57   59 1    
   113   57  118 1    
   114   58  119 1    
   115   58  120 1    
   116   58  121 1    
   117   59   60 am   BACKBONE|DICT|INTERRES
   118   59  122 1    
   119   60   61 2    
   120   60   62 1    
   121   62   63 1    
   122   62   64 1    
   123   62  123 1    
   124   63  124 1    
   125   63  125 1    
   126   63  126 1    
   127   64   65 am   BACKBONE|DICT|INTERRES
   128   64  127 1    
   129   65   66 2    
@<TRIPOS>SUBSTRUCTURE
     1 UNK         1 GROUP             0       ****    0 ROOT    
