@<TRIPOS>MOLECULE
3R134
127   129    1
SMALL
USER_CHARGES


@<TRIPOS>ATOM
      1 CA         29.5887  -45.0656  -49.0420 C.3       0 UNK        -0.1968 
      2 C          31.0683  -45.4008  -49.1632 C.2       0 UNK         0.4852 
      3 O          31.7498  -45.5393  -48.1459 O.2       0 UNK        -0.5359 
      4 N          31.5679  -45.5247  -50.3989 N.am      1 UNK        -0.4300 
      5 CA         32.9484  -45.9082  -50.7098 C.3       1 UNK         0.0863 
      6 C6         33.3517  -45.5147  -52.1545 C.3       11 UNK        -0.0953 
      7 S7         33.2913  -43.7144  -52.4355 S.3       11 UNK        -0.2369 
      8 C8         31.6748  -43.5136  -53.2672 C.3       11 UNK         0.0226 
      9 C9         31.5867  -43.9664  -54.7276 C.ar      11 UNK        -0.0699 
     10 C10        32.6778  -44.4744  -55.4480 C.ar      11 UNK        -0.0804 
     11 C11        32.5401  -44.8378  -56.7916 C.ar      11 UNK        -0.0871 
     12 C12        31.3056  -44.6817  -57.4247 C.ar      11 UNK        -0.1008 
     13 C13        30.2048  -44.1932  -56.7189 C.ar      11 UNK        -0.0735 
     14 C14        30.3522  -43.8424  -55.3739 C.ar      11 UNK        -0.0945 
     15 C15        28.8561  -44.0578  -57.4078 C.3       11 UNK         0.0169 
     16 S16        28.3767  -42.3105  -57.5844 S.3       11 UNK        -0.2669 
     17 C17        26.9862  -42.4125  -58.7617 C.3       11 UNK        -0.0850 
     18 CA         25.6055  -42.4921  -58.0610 C.3       10 UNK         0.0855 
     19 C          24.4634  -42.2568  -59.0870 C.2       10 UNK         0.5543 
     20 N          23.8405  -41.0866  -59.0696 N.am      10 UNK        -0.7343 
     21 O          24.1777  -43.1055  -59.9285 O.2       10 UNK        -0.5027 
     22 N          25.4556  -43.7665  -57.3469 N.am      10 UNK        -0.4495 
     23 C          24.4483  -44.0992  -56.5308 C.2       10 UNK         0.4903 
     24 O          23.5451  -43.3253  -56.2097 O.2       10 UNK        -0.4860 
     25 CA         24.4745  -45.5305  -55.9506 C.3       9 UNK         0.0227 
     26 CB         23.0654  -46.0579  -55.6064 C.3       9 UNK        -0.1964 
     27 N          25.2097  -46.5022  -56.7748 N.am      9 UNK        -0.4231 
     28 C          24.9252  -46.8854  -58.0327 C.2       9 UNK         0.5014 
     29 O          23.9705  -46.4590  -58.6821 O.2       9 UNK        -0.5270 
     30 CA         25.8697  -47.9071  -58.6966 C.3       8 UNK         0.0284 
     31 CB         26.8613  -47.1889  -59.6266 C.3       8 UNK        -0.1977 
     32 N          26.6144  -48.7219  -57.7341 N.am      8 UNK        -0.4342 
     33 C          26.0587  -49.6494  -56.9387 C.2       8 UNK         0.5039 
     34 O          24.8799  -49.9967  -57.0222 O.2       8 UNK        -0.5547 
     35 CA         26.9432  -50.2834  -55.8477 C.3       7 UNK         0.0281 
     36 CB         27.3264  -51.7200  -56.2368 C.3       7 UNK        -0.1963 
     37 N          28.1586  -49.5235  -55.5352 N.am      7 UNK        -0.4444 
     38 C          28.1871  -48.2766  -55.0363 C.2       7 UNK         0.5104 
     39 O          27.1760  -47.6209  -54.7819 O.2       7 UNK        -0.5100 
     40 CA         29.5681  -47.6262  -54.8367 C.3       6 UNK         0.0396 
     41 CB         30.0221  -47.8130  -53.3825 C.3       6 UNK        -0.1801 
     42 N          30.6059  -48.1344  -55.7405 N.am      6 UNK        -0.4747 
     43 C          30.5446  -48.1083  -57.0833 C.2       6 UNK         0.5012 
     44 O          29.6091  -47.6059  -57.7089 O.2       6 UNK        -0.5003 
     45 CA         31.6582  -48.8377  -57.8681 C.3       5 UNK         0.0782 
     46 C46        32.6720  -47.8563  -58.5106 C.3       11 UNK        -0.0868 
     47 S47        33.9107  -47.1819  -57.3459 S.3       11 UNK        -0.2515 
     48 C48        33.7319  -45.3838  -57.5622 C.3       11 UNK         0.0199 
     49 N          32.3281  -49.8948  -57.1014 N.am      5 UNK        -0.4607 
     50 C          31.7351  -50.9680  -56.5622 C.2       4 UNK         0.5031 
     51 O          30.5396  -51.2246  -56.7019 O.2       4 UNK        -0.5119 
     52 CA         32.6025  -51.8917  -55.6880 C.3       4 UNK         0.0263 
     53 CB         33.0074  -53.1459  -56.4791 C.3       4 UNK        -0.1967 
     54 N          33.8073  -51.2661  -55.1253 N.am      4 UNK        -0.4237 
     55 C          33.8241  -50.2142  -54.2942 C.2       3 UNK         0.4908 
     56 O          32.8214  -49.5700  -53.9772 O.2       3 UNK        -0.5102 
     57 CA         35.2060  -49.7874  -53.7724 C.3       3 UNK         0.0241 
     58 CB         35.8234  -48.7156  -54.6837 C.3       3 UNK        -0.1971 
     59 N          35.1255  -49.2579  -52.4124 N.am      3 UNK        -0.4139 
     60 C          34.9077  -49.9893  -51.3112 C.2       2 UNK         0.5016 
     61 O          34.8282  -51.2188  -51.3088 O.2       2 UNK        -0.5319 
     62 CA         34.7728  -49.2227  -49.9816 C.3       2 UNK         0.0286 
     63 CB         36.0903  -49.2820  -49.1908 C.3       2 UNK        -0.1963 
     64 N          34.3811  -47.8187  -50.1578 N.am      2 UNK        -0.4790 
     65 C          33.1447  -47.4214  -50.4885 C.2       1 UNK         0.5024 
     66 O          32.1993  -48.1974  -50.6469 O.2       1 UNK        -0.4888 
     67 H67        29.1126  -44.9579  -50.0165 H         1 UNK         0.0892 
     68 H68        29.0697  -45.8534  -48.4967 H         1 UNK         0.0892 
     69 H69        29.4592  -44.1310  -48.4969 H         1 UNK         0.0892 
     70 H70        30.9518  -45.4388  -51.1919 H         1 UNK         0.3107 
     71 H71        33.6081  -45.3802  -50.0173 H         1 UNK         0.0773 
     72 H72        34.3761  -45.8300  -52.3606 H         1 UNK         0.0680 
     73 H73        32.7333  -46.0202  -52.8953 H         1 UNK         0.0680 
     74 H74        31.4198  -42.4537  -53.2287 H         1 UNK         0.0650 
     75 H75        30.9094  -44.0297  -52.6878 H         1 UNK         0.0650 
     76 H76        33.6435  -44.5883  -54.9778 H         1 UNK         0.1397 
     77 H77        31.1958  -44.9544  -58.4650 H         1 UNK         0.1363 
     78 H78        29.4993  -43.4557  -54.8325 H         1 UNK         0.1355 
     79 H79        28.8845  -44.5297  -58.3910 H         1 UNK         0.0707 
     80 H80        28.1051  -44.5923  -56.8254 H         1 UNK         0.0707 
     81 H81        27.0398  -41.5163  -59.3834 H         1 UNK         0.1034 
     82 H82        27.1290  -43.2521  -59.4449 H         1 UNK         0.1034 
     83 H83        25.5583  -41.6983  -57.3124 H         1 UNK         0.0482 
     84 H84        24.0750  -40.3817  -58.3877 H         1 UNK         0.3460 
     85 H85        23.1092  -40.9100  -59.7407 H         1 UNK         0.3460 
     86 H86        26.1300  -44.4795  -57.5712 H         1 UNK         0.2989 
     87 H87        25.0317  -45.4596  -55.0154 H         1 UNK         0.0559 
     88 H88        22.4199  -46.0912  -56.4846 H         1 UNK         0.0848 
     89 H89        22.5764  -45.4203  -54.8689 H         1 UNK         0.0848 
     90 H90        23.1100  -47.0620  -55.1845 H         1 UNK         0.0848 
     91 H91        25.9988  -46.9400  -56.3081 H         1 UNK         0.3144 
     92 H92        25.2556  -48.5762  -59.3032 H         1 UNK         0.0727 
     93 H93        27.5068  -46.5034  -59.0772 H         1 UNK         0.0790 
     94 H94        26.3350  -46.6051  -60.3833 H         1 UNK         0.0790 
     95 H95        27.4996  -47.8995  -60.1521 H         1 UNK         0.0790 
     96 H96        27.5967  -48.4999  -57.6138 H         1 UNK         0.3215 
     97 H97        26.3438  -50.3251  -54.9358 H         1 UNK         0.0863 
     98 H98        27.9133  -52.2027  -55.4550 H         1 UNK         0.0808 
     99 H99        27.9095  -51.7450  -57.1581 H         1 UNK         0.0808 
    100 H100       26.4375  -52.3313  -56.3983 H         1 UNK         0.0808 
    101 H101       29.0399  -49.9751  -55.7553 H         1 UNK         0.3118 
    102 H102       29.4603  -46.5583  -55.0308 H         1 UNK         0.0546 
    103 H103       29.2992  -47.3869  -52.6856 H         1 UNK         0.0828 
    104 H104       30.9760  -47.3250  -53.2002 H         1 UNK         0.0828 
    105 H105       30.1409  -48.8671  -53.1281 H         1 UNK         0.0828 
    106 H106       31.4059  -48.5801  -55.3033 H         1 UNK         0.3005 
    107 H107       31.1400  -49.3415  -58.6873 H         1 UNK         0.1257 
    108 H108       32.1534  -47.0475  -59.0271 H         1 UNK         0.0775 
    109 H109       33.2250  -48.3810  -59.2912 H         1 UNK         0.0775 
    110 H110       34.6446  -44.8991  -57.2123 H         1 UNK         0.0840 
    111 H111       33.6532  -45.1421  -58.6234 H         1 UNK         0.0840 
    112 H112       33.3083  -49.7425  -56.9145 H         1 UNK         0.2987 
    113 H113       31.9797  -52.2051  -54.8475 H         1 UNK         0.0785 
    114 H114       32.1303  -53.6511  -56.8866 H         1 UNK         0.0798 
    115 H115       33.5262  -53.8660  -55.8459 H         1 UNK         0.0798 
    116 H116       33.6607  -52.9011  -57.3176 H         1 UNK         0.0798 
    117 H117       34.6847  -51.7141  -55.3492 H         1 UNK         0.3079 
    118 H118       35.8644  -50.6589  -53.7612 H         1 UNK         0.0794 
    119 H119       35.2216  -47.8058  -54.6980 H         1 UNK         0.0786 
    120 H120       35.9046  -49.0709  -55.7118 H         1 UNK         0.0786 
    121 H121       36.8278  -48.4467  -54.3561 H         1 UNK         0.0786 
    122 H122       35.1451  -48.2550  -52.3149 H         1 UNK         0.3032 
    123 H123       34.0000  -49.7272  -49.3964 H         1 UNK         0.1094 
    124 H124       36.9046  -48.7878  -49.7220 H         1 UNK         0.0794 
    125 H125       35.9888  -48.8091  -48.2137 H         1 UNK         0.0794 
    126 H126       36.3947  -50.3154  -49.0175 H         1 UNK         0.0794 
    127 H127       35.1048  -47.1247  -50.0298 H         1 UNK         0.3016 
@<TRIPOS>BOND
     1    1    2 1    
     2    1   67 1    
     3    1   68 1    
     4    1   69 1    
     5    2    3 2    
     6    2    4 am   BACKBONE|DICT|INTERRES
     7    4    5 1    
     8    4   70 1    
     9    5    6 1    
    10    5   65 1    
    11    5   71 1    
    12    6    7 1    
    13    6   72 1    
    14    6   73 1    
    15    7    8 1    
    16    8    9 1    
    17    8   74 1    
    18    8   75 1    
    19    9   10 ar   
    20    9   14 ar   
    21   10   11 ar   
    22   10   76 1    
    23   11   12 ar   
    24   11   48 1    
    25   12   13 ar   
    26   12   77 1    
    27   13   14 ar   
    28   13   15 1    
    29   14   78 1    
    30   15   16 1    
    31   15   79 1    
    32   15   80 1    
    33   16   17 1    
    34   17   18 1    
    35   17   81 1    
    36   17   82 1    
    37   18   19 1    
    38   18   22 1    
    39   18   83 1    
    40   19   20 am   BACKBONE|DICT|INTERRES
    41   19   21 2    
    42   20   84 1    
    43   20   85 1    
    44   22   23 am   BACKBONE|DICT|INTERRES
    45   22   86 1    
    46   23   24 2    
    47   23   25 1    
    48   25   26 1    
    49   25   27 1    
    50   25   87 1    
    51   26   88 1    
    52   26   89 1    
    53   26   90 1    
    54   27   28 am   BACKBONE|DICT|INTERRES
    55   27   91 1    
    56   28   29 2    
    57   28   30 1    
    58   30   31 1    
    59   30   32 1    
    60   30   92 1    
    61   31   93 1    
    62   31   94 1    
    63   31   95 1    
    64   32   33 am   BACKBONE|DICT|INTERRES
    65   32   96 1    
    66   33   34 2    
    67   33   35 1    
    68   35   36 1    
    69   35   37 1    
    70   35   97 1    
    71   36   98 1    
    72   36   99 1    
    73   36  100 1    
    74   37   38 am   BACKBONE|DICT|INTERRES
    75   37  101 1    
    76   38   39 2    
    77   38   40 1    
    78   40   41 1    
    79   40   42 1    
    80   40  102 1    
    81   41  103 1    
    82   41  104 1    
    83   41  105 1    
    84   42   43 am   BACKBONE|DICT|INTERRES
    85   42  106 1    
    86   43   44 2    
    87   43   45 1    
    88   45   46 1    
    89   45   49 1    
    90   45  107 1    
    91   46   47 1    
    92   46  108 1    
    93   46  109 1    
    94   47   48 1    
    95   48  110 1    
    96   48  111 1    
    97   49   50 am   BACKBONE|DICT|INTERRES
    98   49  112 1    
    99   50   51 2    
   100   50   52 1    
   101   52   53 1    
   102   52   54 1    
   103   52  113 1    
   104   53  114 1    
   105   53  115 1    
   106   53  116 1    
   107   54   55 am   BACKBONE|DICT|INTERRES
   108   54  117 1    
   109   55   56 2    
   110   55   57 1    
   111   57   58 1    
   112   57   59 1    
   113   57  118 1    
   114   58  119 1    
   115   58  120 1    
   116   58  121 1    
   117   59   60 am   BACKBONE|DICT|INTERRES
   118   59  122 1    
   119   60   61 2    
   120   60   62 1    
   121   62   63 1    
   122   62   64 1    
   123   62  123 1    
   124   63  124 1    
   125   63  125 1    
   126   63  126 1    
   127   64   65 am   BACKBONE|DICT|INTERRES
   128   64  127 1    
   129   65   66 2    
@<TRIPOS>SUBSTRUCTURE
     1 UNK         1 GROUP             0       ****    0 ROOT    
