@<TRIPOS>MOLECULE
3R134
127   129    1
SMALL
USER_CHARGES


@<TRIPOS>ATOM
      1 CA         31.1673  -45.0226  -47.0722 C.3       0 UNK        -0.1968 
      2 C          32.3550  -45.2481  -47.9964 C.2       0 UNK         0.4852 
      3 O          33.4418  -45.5808  -47.5216 O.2       0 UNK        -0.5359 
      4 N          32.1556  -45.0640  -49.3095 N.am      1 UNK        -0.4300 
      5 CA         33.1695  -45.2654  -50.3522 C.3       1 UNK         0.0863 
      6 C6         32.7112  -44.6434  -51.6956 C.3       11 UNK        -0.0953 
      7 S7         34.0811  -44.4023  -52.8739 S.3       11 UNK        -0.2369 
      8 C8         33.4806  -43.0036  -53.8746 C.3       11 UNK         0.0226 
      9 C9         32.6228  -43.4612  -55.0466 C.ar      11 UNK        -0.0699 
     10 C10        33.2316  -44.0499  -56.1582 C.ar      11 UNK        -0.0804 
     11 C11        32.4736  -44.4331  -57.2677 C.ar      11 UNK        -0.0871 
     12 C12        31.0910  -44.2290  -57.2592 C.ar      11 UNK        -0.1008 
     13 C13        30.4670  -43.6464  -56.1514 C.ar      11 UNK        -0.0735 
     14 C14        31.2376  -43.2645  -55.0463 C.ar      11 UNK        -0.0945 
     15 C15        28.9578  -43.4524  -56.1438 C.3       11 UNK         0.0169 
     16 S16        28.4550  -41.9989  -57.1132 S.3       11 UNK        -0.2669 
     17 C17        26.6800  -41.7978  -56.7034 C.3       11 UNK        -0.0850 
     18 CA         25.8570  -43.0942  -56.4504 C.3       10 UNK         0.0855 
     19 C          24.4085  -42.7400  -55.9984 C.2       10 UNK         0.5543 
     20 N          23.3698  -43.0860  -56.7494 N.am      10 UNK        -0.7343 
     21 O          24.2266  -42.1402  -54.9418 O.2       10 UNK        -0.5027 
     22 N          25.9340  -44.0258  -57.5902 N.am      10 UNK        -0.4495 
     23 C          25.6712  -45.3384  -57.5232 C.2       10 UNK         0.4903 
     24 O          25.3473  -45.9131  -56.4832 O.2       10 UNK        -0.4860 
     25 CA         25.7467  -46.1369  -58.8367 C.3       9 UNK         0.0227 
     26 CB         26.6693  -45.4973  -59.8966 C.3       9 UNK        -0.1964 
     27 N          26.2104  -47.4984  -58.5642 N.am      9 UNK        -0.4231 
     28 C          25.5416  -48.6221  -58.8509 C.2       9 UNK         0.5014 
     29 O          24.4198  -48.6432  -59.3609 O.2       9 UNK        -0.5270 
     30 CA         26.2476  -49.9588  -58.5600 C.3       8 UNK         0.0284 
     31 CB         27.2064  -50.3174  -59.7069 C.3       8 UNK        -0.1977 
     32 N          26.9726  -49.9930  -57.2869 N.am      8 UNK        -0.4342 
     33 C          26.3853  -50.0639  -56.0831 C.2       8 UNK         0.5039 
     34 O          25.1653  -50.0689  -55.9141 O.2       8 UNK        -0.5547 
     35 CA         27.3131  -50.1659  -54.8597 C.3       7 UNK         0.0281 
     36 CB         27.8440  -51.5981  -54.6824 C.3       7 UNK        -0.1963 
     37 N          28.4335  -49.2323  -54.9558 N.am      7 UNK        -0.4444 
     38 C          28.3346  -47.9178  -54.7192 C.2       7 UNK         0.5104 
     39 O          27.3352  -47.3797  -54.2444 O.2       7 UNK        -0.5100 
     40 CA         29.5456  -47.0494  -55.0907 C.3       6 UNK         0.0396 
     41 CB         30.4436  -46.7892  -53.8758 C.3       6 UNK        -0.1801 
     42 N          30.3333  -47.6139  -56.1893 N.am      6 UNK        -0.4747 
     43 C          29.9469  -47.5926  -57.4733 C.2       6 UNK         0.5012 
     44 O          28.9072  -47.0596  -57.8550 O.2       6 UNK        -0.5003 
     45 CA         30.8246  -48.3294  -58.5054 C.3       5 UNK         0.0782 
     46 C46        31.7547  -47.3680  -59.2847 C.3       11 UNK        -0.0868 
     47 S47        33.2521  -46.8520  -58.3716 S.3       11 UNK        -0.2515 
     48 C48        33.1638  -45.0378  -58.4800 C.3       11 UNK         0.0199 
     49 N          31.5469  -49.4660  -57.9298 N.am      5 UNK        -0.4607 
     50 C          30.9658  -50.5829  -57.4749 C.2       4 UNK         0.5031 
     51 O          29.7563  -50.7984  -57.5489 O.2       4 UNK        -0.5119 
     52 CA         31.8808  -51.5834  -56.7468 C.3       4 UNK         0.0263 
     53 CB         32.5945  -52.4988  -57.7537 C.3       4 UNK        -0.1967 
     54 N          32.8701  -50.9204  -55.8855 N.am      4 UNK        -0.4237 
     55 C          32.5484  -50.1417  -54.8431 C.2       3 UNK         0.4908 
     56 O          31.3858  -49.9407  -54.4853 O.2       3 UNK        -0.5102 
     57 CA         33.7039  -49.4068  -54.1423 C.3       3 UNK         0.0241 
     58 CB         34.1333  -48.1770  -54.9616 C.3       3 UNK        -0.1971 
     59 N          33.3175  -48.9575  -52.8044 N.am      3 UNK        -0.4139 
     60 C          33.1992  -49.7476  -51.7304 C.2       2 UNK         0.5016 
     61 O          33.4936  -50.9447  -51.7371 O.2       2 UNK        -0.5319 
     62 CA         32.6395  -49.1149  -50.4363 C.3       2 UNK         0.0286 
     63 CB         33.3861  -49.6130  -49.1801 C.3       2 UNK        -0.1963 
     64 N          32.5479  -47.6439  -50.4318 N.am      2 UNK        -0.4790 
     65 C          33.5550  -46.7559  -50.5000 C.2       1 UNK         0.5024 
     66 O          34.7368  -47.0671  -50.6511 O.2       1 UNK        -0.4888 
     67 H67        30.9402  -45.9367  -46.5243 H         1 UNK         0.0892 
     68 H68        31.3977  -44.2403  -46.3494 H         1 UNK         0.0892 
     69 H69        30.2733  -44.7249  -47.6198 H         1 UNK         0.0892 
     70 H70        31.2428  -44.7741  -49.6310 H         1 UNK         0.3107 
     71 H71        34.0657  -44.7331  -50.0244 H         1 UNK         0.0773 
     72 H72        31.9303  -45.2403  -52.1617 H         1 UNK         0.0680 
     73 H73        32.2645  -43.6666  -51.5046 H         1 UNK         0.0680 
     74 H74        34.3458  -42.4639  -54.2625 H         1 UNK         0.0650 
     75 H75        32.9424  -42.2913  -53.2479 H         1 UNK         0.0650 
     76 H76        34.3026  -44.2012  -56.1610 H         1 UNK         0.1397 
     77 H77        30.4960  -44.5234  -58.1130 H         1 UNK         0.1363 
     78 H78        30.7604  -42.8087  -54.1897 H         1 UNK         0.1355 
     79 H79        28.4789  -44.3340  -56.5690 H         1 UNK         0.0707 
     80 H80        28.5972  -43.3551  -55.1187 H         1 UNK         0.0707 
     81 H81        26.6355  -41.1551  -55.8217 H         1 UNK         0.1034 
     82 H82        26.2214  -41.2193  -57.5076 H         1 UNK         0.1034 
     83 H83        26.2940  -43.6021  -55.5897 H         1 UNK         0.0482 
     84 H84        22.4383  -42.8527  -56.4431 H         1 UNK         0.3460 
     85 H85        23.5082  -43.5799  -57.6160 H         1 UNK         0.3460 
     86 H86        26.1910  -43.6215  -58.4783 H         1 UNK         0.2989 
     87 H87        24.7333  -46.1568  -59.2414 H         1 UNK         0.0559 
     88 H88        26.2735  -44.5453  -60.2515 H         1 UNK         0.0848 
     89 H89        26.7663  -46.1407  -60.7712 H         1 UNK         0.0848 
     90 H90        27.6728  -45.3182  -59.5077 H         1 UNK         0.0848 
     91 H91        27.1286  -47.5570  -58.1295 H         1 UNK         0.3144 
     92 H92        25.4773  -50.7323  -58.5208 H         1 UNK         0.0727 
     93 H93        27.6731  -51.2897  -59.5467 H         1 UNK         0.0790 
     94 H94        27.9992  -49.5781  -59.8159 H         1 UNK         0.0790 
     95 H95        26.6745  -50.3659  -60.6581 H         1 UNK         0.0790 
     96 H96        27.9843  -50.0839  -57.3377 H         1 UNK         0.3215 
     97 H97        26.7262  -49.9154  -53.9731 H         1 UNK         0.0863 
     98 H98        28.4713  -51.6800  -53.7945 H         1 UNK         0.0808 
     99 H99        28.4341  -51.9261  -55.5382 H         1 UNK         0.0808 
    100 H100       27.0213  -52.3046  -54.5653 H         1 UNK         0.0808 
    101 H101       29.3245  -49.5982  -55.2693 H         1 UNK         0.3118 
    102 H102       29.1554  -46.0885  -55.4157 H         1 UNK         0.0546 
    103 H103       29.9060  -46.2107  -53.1238 H         1 UNK         0.0828 
    104 H104       31.3266  -46.2179  -54.1615 H         1 UNK         0.0828 
    105 H105       30.7691  -47.7120  -53.3989 H         1 UNK         0.0828 
    106 H106       31.1710  -48.1184  -55.9387 H         1 UNK         0.3005 
    107 H107       30.1263  -48.7425  -59.2360 H         1 UNK         0.1257 
    108 H108       32.0956  -47.8662  -60.1935 H         1 UNK         0.0775 
    109 H109       31.1972  -46.4958  -59.6310 H         1 UNK         0.0775 
    110 H110       34.1809  -44.6494  -58.5525 H         1 UNK         0.0840 
    111 H111       32.6666  -44.7287  -59.4005 H         1 UNK         0.0840 
    112 H112       32.5449  -49.3506  -57.8294 H         1 UNK         0.2987 
    113 H113       31.2463  -52.2037  -56.1098 H         1 UNK         0.0785 
    114 H114       33.1779  -53.2675  -57.2466 H         1 UNK         0.0798 
    115 H115       33.2678  -51.9404  -58.4053 H         1 UNK         0.0798 
    116 H116       31.8734  -53.0112  -58.3924 H         1 UNK         0.0798 
    117 H117       33.8433  -51.0408  -56.1288 H         1 UNK         0.3079 
    118 H118       34.5513  -50.0897  -54.0521 H         1 UNK         0.0794 
    119 H119       34.4925  -48.4660  -55.9499 H         1 UNK         0.0786 
    120 H120       34.9459  -47.6395  -54.4720 H         1 UNK         0.0786 
    121 H121       33.3127  -47.4730  -55.1064 H         1 UNK         0.0786 
    122 H122       33.0509  -47.9902  -52.7078 H         1 UNK         0.3032 
    123 H123       31.6121  -49.4762  -50.3659 H         1 UNK         0.1094 
    124 H124       34.4447  -49.3531  -49.2085 H         1 UNK         0.0794 
    125 H125       32.9611  -49.1877  -48.2709 H         1 UNK         0.0794 
    126 H126       33.3219  -50.6979  -49.0878 H         1 UNK         0.0794 
    127 H127       31.6154  -47.2740  -50.3076 H         1 UNK         0.3016 
@<TRIPOS>BOND
     1    1    2 1    
     2    1   67 1    
     3    1   68 1    
     4    1   69 1    
     5    2    3 2    
     6    2    4 am   BACKBONE|DICT|INTERRES
     7    4    5 1    
     8    4   70 1    
     9    5    6 1    
    10    5   65 1    
    11    5   71 1    
    12    6    7 1    
    13    6   72 1    
    14    6   73 1    
    15    7    8 1    
    16    8    9 1    
    17    8   74 1    
    18    8   75 1    
    19    9   10 ar   
    20    9   14 ar   
    21   10   11 ar   
    22   10   76 1    
    23   11   12 ar   
    24   11   48 1    
    25   12   13 ar   
    26   12   77 1    
    27   13   14 ar   
    28   13   15 1    
    29   14   78 1    
    30   15   16 1    
    31   15   79 1    
    32   15   80 1    
    33   16   17 1    
    34   17   18 1    
    35   17   81 1    
    36   17   82 1    
    37   18   19 1    
    38   18   22 1    
    39   18   83 1    
    40   19   20 am   BACKBONE|DICT|INTERRES
    41   19   21 2    
    42   20   84 1    
    43   20   85 1    
    44   22   23 am   BACKBONE|DICT|INTERRES
    45   22   86 1    
    46   23   24 2    
    47   23   25 1    
    48   25   26 1    
    49   25   27 1    
    50   25   87 1    
    51   26   88 1    
    52   26   89 1    
    53   26   90 1    
    54   27   28 am   BACKBONE|DICT|INTERRES
    55   27   91 1    
    56   28   29 2    
    57   28   30 1    
    58   30   31 1    
    59   30   32 1    
    60   30   92 1    
    61   31   93 1    
    62   31   94 1    
    63   31   95 1    
    64   32   33 am   BACKBONE|DICT|INTERRES
    65   32   96 1    
    66   33   34 2    
    67   33   35 1    
    68   35   36 1    
    69   35   37 1    
    70   35   97 1    
    71   36   98 1    
    72   36   99 1    
    73   36  100 1    
    74   37   38 am   BACKBONE|DICT|INTERRES
    75   37  101 1    
    76   38   39 2    
    77   38   40 1    
    78   40   41 1    
    79   40   42 1    
    80   40  102 1    
    81   41  103 1    
    82   41  104 1    
    83   41  105 1    
    84   42   43 am   BACKBONE|DICT|INTERRES
    85   42  106 1    
    86   43   44 2    
    87   43   45 1    
    88   45   46 1    
    89   45   49 1    
    90   45  107 1    
    91   46   47 1    
    92   46  108 1    
    93   46  109 1    
    94   47   48 1    
    95   48  110 1    
    96   48  111 1    
    97   49   50 am   BACKBONE|DICT|INTERRES
    98   49  112 1    
    99   50   51 2    
   100   50   52 1    
   101   52   53 1    
   102   52   54 1    
   103   52  113 1    
   104   53  114 1    
   105   53  115 1    
   106   53  116 1    
   107   54   55 am   BACKBONE|DICT|INTERRES
   108   54  117 1    
   109   55   56 2    
   110   55   57 1    
   111   57   58 1    
   112   57   59 1    
   113   57  118 1    
   114   58  119 1    
   115   58  120 1    
   116   58  121 1    
   117   59   60 am   BACKBONE|DICT|INTERRES
   118   59  122 1    
   119   60   61 2    
   120   60   62 1    
   121   62   63 1    
   122   62   64 1    
   123   62  123 1    
   124   63  124 1    
   125   63  125 1    
   126   63  126 1    
   127   64   65 am   BACKBONE|DICT|INTERRES
   128   64  127 1    
   129   65   66 2    
@<TRIPOS>SUBSTRUCTURE
     1 UNK         1 GROUP             0       ****    0 ROOT    
