@<TRIPOS>MOLECULE
3R134
127   129    1
SMALL
USER_CHARGES


@<TRIPOS>ATOM
      1 CA         39.9761  -47.4271  -52.9710 C.3       0 UNK        -0.1968 
      2 C          38.5569  -46.8788  -52.9658 C.2       0 UNK         0.4852 
      3 O          38.1392  -46.2826  -51.9712 O.2       0 UNK        -0.5359 
      4 N          37.8170  -47.0788  -54.0669 N.am      1 UNK        -0.4300 
      5 CA         36.4213  -46.6774  -54.2891 C.3       1 UNK         0.0863 
      6 C6         36.1834  -45.1524  -54.1091 C.3       11 UNK        -0.0953 
      7 S7         34.7512  -44.5386  -55.0491 S.3       11 UNK        -0.2369 
      8 C8         33.5089  -44.4091  -53.7180 C.3       11 UNK         0.0226 
      9 C9         32.1535  -43.8309  -54.1282 C.ar      11 UNK        -0.0699 
     10 C10        31.2576  -43.4890  -53.1116 C.ar      11 UNK        -0.0804 
     11 C11        29.9984  -42.9634  -53.4116 C.ar      11 UNK        -0.0871 
     12 C12        29.6464  -42.7399  -54.7431 C.ar      11 UNK        -0.1008 
     13 C13        30.5089  -43.1144  -55.7755 C.ar      11 UNK        -0.0735 
     14 C14        31.7598  -43.6570  -55.4635 C.ar      11 UNK        -0.0945 
     15 C15        30.0810  -42.9543  -57.2271 C.3       11 UNK         0.0169 
     16 S16        28.8670  -44.2255  -57.7082 S.3       11 UNK        -0.2669 
     17 C17        27.3013  -43.4782  -57.1255 C.3       11 UNK        -0.0850 
     18 CA         26.0510  -43.9311  -57.9195 C.3       10 UNK         0.0855 
     19 C          26.0778  -43.4552  -59.4037 C.2       10 UNK         0.5543 
     20 N          26.0991  -44.3414  -60.3934 N.am      10 UNK        -0.7343 
     21 O          26.0638  -42.2534  -59.6587 O.2       10 UNK        -0.5027 
     22 N          25.7931  -45.3637  -57.7282 N.am      10 UNK        -0.4495 
     23 C          24.6160  -45.9630  -57.9455 C.2       10 UNK         0.4903 
     24 O          23.5811  -45.3503  -58.2145 O.2       10 UNK        -0.4860 
     25 CA         24.5889  -47.5033  -57.8560 C.3       9 UNK         0.0227 
     26 CB         23.4782  -48.1233  -58.7290 C.3       9 UNK        -0.1964 
     27 N          25.8765  -48.1499  -58.1435 N.am      9 UNK        -0.4231 
     28 C          26.6338  -48.0305  -59.2474 C.2       9 UNK         0.5014 
     29 O          26.3361  -47.3121  -60.2033 O.2       9 UNK        -0.5270 
     30 CA         27.9571  -48.8178  -59.2901 C.3       8 UNK         0.0284 
     31 CB         29.1473  -47.8812  -59.5656 C.3       8 UNK        -0.1977 
     32 N          28.1965  -49.5520  -58.0423 N.am      8 UNK        -0.4342 
     33 C          27.9393  -50.8564  -57.8735 C.2       8 UNK         0.5039 
     34 O          27.5628  -51.6010  -58.7797 O.2       8 UNK        -0.5547 
     35 CA         28.0922  -51.4367  -56.4570 C.3       7 UNK         0.0281 
     36 CB         29.5183  -51.9602  -56.2235 C.3       7 UNK        -0.1963 
     37 N          27.7138  -50.5191  -55.3769 N.am      7 UNK        -0.4444 
     38 C          26.4656  -50.0799  -55.1561 C.2       7 UNK         0.5104 
     39 O          25.5266  -50.2788  -55.9255 O.2       7 UNK        -0.5100 
     40 CA         26.2181  -49.2868  -53.8655 C.3       6 UNK         0.0396 
     41 CB         26.1995  -50.2270  -52.6495 C.3       6 UNK        -0.1801 
     42 N          27.2435  -48.2665  -53.6722 N.am      6 UNK        -0.4747 
     43 C          27.1254  -46.9831  -54.0411 C.2       6 UNK         0.5012 
     44 O          26.1048  -46.4986  -54.5311 O.2       6 UNK        -0.5003 
     45 CA         28.3815  -46.1020  -53.8577 C.3       5 UNK         0.0782 
     46 C46        28.4202  -45.4815  -52.4318 C.3       11 UNK        -0.0868 
     47 S47        27.5860  -43.8570  -52.3694 S.3       11 UNK        -0.2515 
     48 C48        28.9938  -42.6950  -52.3008 C.3       11 UNK         0.0199 
     49 N          29.6292  -46.8079  -54.1798 N.am      5 UNK        -0.4607 
     50 C          29.8857  -47.4462  -55.3321 C.2       4 UNK         0.5031 
     51 O          29.1025  -47.4994  -56.2790 O.2       4 UNK        -0.5119 
     52 CA         31.1997  -48.2414  -55.4224 C.3       4 UNK         0.0263 
     53 CB         32.3059  -47.3697  -56.0307 C.3       4 UNK        -0.1967 
     54 N          31.6618  -48.8317  -54.1565 N.am      4 UNK        -0.4237 
     55 C          30.9223  -49.5865  -53.3251 C.2       3 UNK         0.4908 
     56 O          29.7398  -49.8649  -53.5340 O.2       3 UNK        -0.5102 
     57 CA         31.5728  -50.1325  -52.0412 C.3       3 UNK         0.0241 
     58 CB         31.5804  -51.6707  -52.0605 C.3       3 UNK        -0.1971 
     59 N          32.9321  -49.6588  -51.7735 N.am      3 UNK        -0.4139 
     60 C          33.2859  -48.4158  -51.4194 C.2       2 UNK         0.5016 
     61 O          32.4965  -47.4739  -51.3349 O.2       2 UNK        -0.5319 
     62 CA         34.7809  -48.1831  -51.1160 C.3       2 UNK         0.0286 
     63 CB         35.5747  -49.4833  -50.8539 C.3       2 UNK        -0.1963 
     64 N          35.4746  -47.3944  -52.1405 N.am      2 UNK        -0.4790 
     65 C          35.4496  -47.5553  -53.4719 C.2       1 UNK         0.5024 
     66 O          34.7410  -48.3770  -54.0554 O.2       1 UNK        -0.4888 
     67 H67        40.1019  -48.1480  -52.1636 H         1 UNK         0.0892 
     68 H68        40.2197  -47.9236  -53.9102 H         1 UNK         0.0892 
     69 H69        40.6905  -46.6182  -52.8202 H         1 UNK         0.0892 
     70 H70        38.2271  -47.5982  -54.8312 H         1 UNK         0.3107 
     71 H71        36.2362  -46.9134  -55.3387 H         1 UNK         0.0773 
     72 H72        36.0978  -44.8701  -53.0587 H         1 UNK         0.0680 
     73 H73        37.0486  -44.6043  -54.4851 H         1 UNK         0.0680 
     74 H74        33.9267  -43.7880  -52.9241 H         1 UNK         0.0650 
     75 H75        33.3466  -45.3980  -53.2873 H         1 UNK         0.0650 
     76 H76        31.5354  -43.6564  -52.0796 H         1 UNK         0.1397 
     77 H77        28.6768  -42.3221  -54.9719 H         1 UNK         0.1363 
     78 H78        32.4161  -43.9464  -56.2711 H         1 UNK         0.1355 
     79 H79        30.9465  -43.0405  -57.8858 H         1 UNK         0.0707 
     80 H80        29.6757  -41.9553  -57.3931 H         1 UNK         0.0707 
     81 H81        27.1672  -43.7323  -56.0734 H         1 UNK         0.1034 
     82 H82        27.3806  -42.3902  -57.1594 H         1 UNK         0.1034 
     83 H83        25.2042  -43.4068  -57.4722 H         1 UNK         0.0482 
     84 H84        26.1106  -44.0152  -61.3461 H         1 UNK         0.3460 
     85 H85        26.1257  -45.3381  -60.2020 H         1 UNK         0.3460 
     86 H86        26.5996  -45.9338  -57.5179 H         1 UNK         0.2989 
     87 H87        24.3624  -47.7375  -56.8148 H         1 UNK         0.0559 
     88 H88        23.6159  -47.8854  -59.7844 H         1 UNK         0.0848 
     89 H89        22.4943  -47.7543  -58.4371 H         1 UNK         0.0848 
     90 H90        23.4561  -49.2086  -58.6292 H         1 UNK         0.0848 
     91 H91        26.1932  -48.7951  -57.4308 H         1 UNK         0.3144 
     92 H92        27.8852  -49.5137  -60.1282 H         1 UNK         0.0727 
     93 H93        29.2165  -47.0816  -58.8284 H         1 UNK         0.0790 
     94 H94        29.0517  -47.4073  -60.5433 H         1 UNK         0.0790 
     95 H95        30.0918  -48.4251  -59.5607 H         1 UNK         0.0790 
     96 H96        28.5075  -48.9871  -57.2531 H         1 UNK         0.3215 
     97 H97        27.4167  -52.2929  -56.3939 H         1 UNK         0.0863 
     98 H98        29.6105  -52.4412  -55.2495 H         1 UNK         0.0808 
     99 H99        30.2584  -51.1643  -56.2734 H         1 UNK         0.0808 
    100 H100       29.7883  -52.7012  -56.9772 H         1 UNK         0.0808 
    101 H101       28.4369  -50.2955  -54.6943 H         1 UNK         0.3118 
    102 H102       25.2342  -48.8185  -53.9401 H         1 UNK         0.0546 
    103 H103       25.4447  -51.0054  -52.7697 H         1 UNK         0.0828 
    104 H104       25.9608  -49.6840  -51.7350 H         1 UNK         0.0828 
    105 H105       27.1598  -50.7231  -52.5016 H         1 UNK         0.0828 
    106 H106       28.1488  -48.5943  -53.3523 H         1 UNK         0.3005 
    107 H107       28.3116  -45.3015  -54.5966 H         1 UNK         0.1257 
    108 H108       29.4473  -45.3559  -52.0883 H         1 UNK         0.0775 
    109 H109       27.9628  -46.1383  -51.6889 H         1 UNK         0.0775 
    110 H110       28.6201  -41.6737  -52.3860 H         1 UNK         0.0840 
    111 H111       29.4675  -42.7681  -51.3205 H         1 UNK         0.0840 
    112 H112       30.3328  -46.8349  -53.4563 H         1 UNK         0.2987 
    113 H113       31.0204  -49.0651  -56.1126 H         1 UNK         0.0785 
    114 H114       32.6068  -46.5797  -55.3459 H         1 UNK         0.0798 
    115 H115       31.9711  -46.8928  -56.9534 H         1 UNK         0.0798 
    116 H116       33.1897  -47.9592  -56.2741 H         1 UNK         0.0798 
    117 H117       32.6358  -48.6750  -53.9202 H         1 UNK         0.3079 
    118 H118       30.9417  -49.8070  -51.2116 H         1 UNK         0.0794 
    119 H119       32.2006  -52.0606  -52.8687 H         1 UNK         0.0786 
    120 H120       30.5742  -52.0682  -52.2027 H         1 UNK         0.0786 
    121 H121       31.9545  -52.0788  -51.1213 H         1 UNK         0.0786 
    122 H122       33.6670  -50.3466  -51.8527 H         1 UNK         0.3032 
    123 H123       34.8075  -47.5925  -50.1986 H         1 UNK         0.1094 
    124 H124       36.5833  -49.2569  -50.5073 H         1 UNK         0.0794 
    125 H125       35.1037  -50.0887  -50.0779 H         1 UNK         0.0794 
    126 H126       35.6711  -50.0976  -51.7501 H         1 UNK         0.0794 
    127 H127       36.1534  -46.7248  -51.7902 H         1 UNK         0.3016 
@<TRIPOS>BOND
     1    1    2 1    
     2    1   67 1    
     3    1   68 1    
     4    1   69 1    
     5    2    3 2    
     6    2    4 am   BACKBONE|DICT|INTERRES
     7    4    5 1    
     8    4   70 1    
     9    5    6 1    
    10    5   65 1    
    11    5   71 1    
    12    6    7 1    
    13    6   72 1    
    14    6   73 1    
    15    7    8 1    
    16    8    9 1    
    17    8   74 1    
    18    8   75 1    
    19    9   10 ar   
    20    9   14 ar   
    21   10   11 ar   
    22   10   76 1    
    23   11   12 ar   
    24   11   48 1    
    25   12   13 ar   
    26   12   77 1    
    27   13   14 ar   
    28   13   15 1    
    29   14   78 1    
    30   15   16 1    
    31   15   79 1    
    32   15   80 1    
    33   16   17 1    
    34   17   18 1    
    35   17   81 1    
    36   17   82 1    
    37   18   19 1    
    38   18   22 1    
    39   18   83 1    
    40   19   20 am   BACKBONE|DICT|INTERRES
    41   19   21 2    
    42   20   84 1    
    43   20   85 1    
    44   22   23 am   BACKBONE|DICT|INTERRES
    45   22   86 1    
    46   23   24 2    
    47   23   25 1    
    48   25   26 1    
    49   25   27 1    
    50   25   87 1    
    51   26   88 1    
    52   26   89 1    
    53   26   90 1    
    54   27   28 am   BACKBONE|DICT|INTERRES
    55   27   91 1    
    56   28   29 2    
    57   28   30 1    
    58   30   31 1    
    59   30   32 1    
    60   30   92 1    
    61   31   93 1    
    62   31   94 1    
    63   31   95 1    
    64   32   33 am   BACKBONE|DICT|INTERRES
    65   32   96 1    
    66   33   34 2    
    67   33   35 1    
    68   35   36 1    
    69   35   37 1    
    70   35   97 1    
    71   36   98 1    
    72   36   99 1    
    73   36  100 1    
    74   37   38 am   BACKBONE|DICT|INTERRES
    75   37  101 1    
    76   38   39 2    
    77   38   40 1    
    78   40   41 1    
    79   40   42 1    
    80   40  102 1    
    81   41  103 1    
    82   41  104 1    
    83   41  105 1    
    84   42   43 am   BACKBONE|DICT|INTERRES
    85   42  106 1    
    86   43   44 2    
    87   43   45 1    
    88   45   46 1    
    89   45   49 1    
    90   45  107 1    
    91   46   47 1    
    92   46  108 1    
    93   46  109 1    
    94   47   48 1    
    95   48  110 1    
    96   48  111 1    
    97   49   50 am   BACKBONE|DICT|INTERRES
    98   49  112 1    
    99   50   51 2    
   100   50   52 1    
   101   52   53 1    
   102   52   54 1    
   103   52  113 1    
   104   53  114 1    
   105   53  115 1    
   106   53  116 1    
   107   54   55 am   BACKBONE|DICT|INTERRES
   108   54  117 1    
   109   55   56 2    
   110   55   57 1    
   111   57   58 1    
   112   57   59 1    
   113   57  118 1    
   114   58  119 1    
   115   58  120 1    
   116   58  121 1    
   117   59   60 am   BACKBONE|DICT|INTERRES
   118   59  122 1    
   119   60   61 2    
   120   60   62 1    
   121   62   63 1    
   122   62   64 1    
   123   62  123 1    
   124   63  124 1    
   125   63  125 1    
   126   63  126 1    
   127   64   65 am   BACKBONE|DICT|INTERRES
   128   64  127 1    
   129   65   66 2    
@<TRIPOS>SUBSTRUCTURE
     1 UNK         1 GROUP             0       ****    0 ROOT    
