@<TRIPOS>MOLECULE
3R134
127   129    1
SMALL
USER_CHARGES


@<TRIPOS>ATOM
      1 CA         36.9426  -44.6389  -51.6556 C.3       0 UNK        -0.1968 
      2 C          35.5111  -44.2409  -52.0064 C.2       0 UNK         0.4852 
      3 O          35.0152  -43.2472  -51.4788 O.2       0 UNK        -0.5359 
      4 N          34.8050  -44.9754  -52.8783 N.am      1 UNK        -0.4300 
      5 CA         35.2501  -46.1881  -53.5836 C.3       1 UNK         0.0863 
      6 C6         34.5580  -46.3658  -54.9599 C.3       11 UNK        -0.0953 
      7 S7         34.5690  -44.8824  -56.0205 S.3       11 UNK        -0.2369 
      8 C8         32.9693  -45.0614  -56.8788 C.3       11 UNK         0.0226 
      9 C9         31.8532  -44.2483  -56.2321 C.ar      11 UNK        -0.0699 
     10 C10        31.5171  -44.4238  -54.8860 C.ar      11 UNK        -0.0804 
     11 C11        30.4728  -43.6964  -54.3089 C.ar      11 UNK        -0.0871 
     12 C12        29.7579  -42.7824  -55.0890 C.ar      11 UNK        -0.1008 
     13 C13        30.0838  -42.5952  -56.4352 C.ar      11 UNK        -0.0735 
     14 C14        31.1310  -43.3294  -56.9990 C.ar      11 UNK        -0.0945 
     15 C15        29.3187  -41.5955  -57.2872 C.3       11 UNK         0.0169 
     16 S16        27.9262  -42.3878  -58.1464 S.3       11 UNK        -0.2669 
     17 C17        26.5357  -41.9826  -57.0306 C.3       11 UNK        -0.0850 
     18 CA         25.2546  -42.8151  -57.2976 C.3       10 UNK         0.0855 
     19 C          24.6429  -42.5217  -58.7020 C.2       10 UNK         0.5543 
     20 N          24.6629  -43.4575  -59.6456 N.am      10 UNK        -0.7343 
     21 O          24.1326  -41.4276  -58.9302 O.2       10 UNK        -0.5027 
     22 N          25.4729  -44.2381  -57.0062 N.am      10 UNK        -0.4495 
     23 C          24.5000  -45.1460  -56.8542 C.2       10 UNK         0.4903 
     24 O          23.3052  -44.8531  -56.7831 O.2       10 UNK        -0.4860 
     25 CA         24.9217  -46.6271  -56.7649 C.3       9 UNK         0.0227 
     26 CB         23.9031  -47.5652  -57.4448 C.3       9 UNK        -0.1964 
     27 N          26.2769  -46.9124  -57.2542 N.am      9 UNK        -0.4231 
     28 C          26.7749  -46.7065  -58.4839 C.2       9 UNK         0.5014 
     29 O          26.1577  -46.1542  -59.3968 O.2       9 UNK        -0.5270 
     30 CA         28.2118  -47.1992  -58.7285 C.3       8 UNK         0.0284 
     31 CB         29.2335  -46.2014  -58.1570 C.3       8 UNK        -0.1977 
     32 N          28.4562  -48.5304  -58.1648 N.am      8 UNK        -0.4342 
     33 C          27.8662  -49.6600  -58.5852 C.2       8 UNK         0.5039 
     34 O          27.0950  -49.7180  -59.5437 O.2       8 UNK        -0.5547 
     35 CA         28.1767  -50.9423  -57.7958 C.3       7 UNK         0.0281 
     36 CB         29.5329  -51.5363  -58.2122 C.3       7 UNK        -0.1963 
     37 N          28.1539  -50.7069  -56.3512 N.am      7 UNK        -0.4444 
     38 C          27.0347  -50.5735  -55.6245 C.2       7 UNK         0.5104 
     39 O          25.9000  -50.7207  -56.0784 O.2       7 UNK        -0.5100 
     40 CA         27.2060  -50.1996  -54.1405 C.3       6 UNK         0.0396 
     41 CB         27.2424  -51.4622  -53.2658 C.3       6 UNK        -0.1801 
     42 N          28.4027  -49.3908  -53.8882 N.am      6 UNK        -0.4747 
     43 C          28.5488  -48.1213  -54.3012 C.2       6 UNK         0.5012 
     44 O          27.6766  -47.5063  -54.9127 O.2       6 UNK        -0.5003 
     45 CA         29.9196  -47.4507  -54.0678 C.3       5 UNK         0.0782 
     46 C46        29.9886  -46.7246  -52.7018 C.3       11 UNK        -0.0868 
     47 S47        28.9286  -45.2398  -52.6031 S.3       11 UNK        -0.2515 
     48 C48        30.1235  -43.8875  -52.8405 C.3       11 UNK         0.0199 
     49 N          31.0237  -48.4049  -54.2308 N.am      5 UNK        -0.4607 
     50 C          31.2981  -49.0402  -55.3814 C.2       4 UNK         0.5031 
     51 O          30.7243  -48.7782  -56.4379 O.2       4 UNK        -0.5119 
     52 CA         32.3127  -50.2006  -55.3653 C.3       4 UNK         0.0263 
     53 CB         33.5746  -49.8648  -56.1718 C.3       4 UNK        -0.1967 
     54 N          32.6898  -50.6508  -54.0234 N.am      4 UNK        -0.4237 
     55 C          31.8720  -51.3137  -53.1926 C.2       3 UNK         0.4908 
     56 O          30.7248  -51.6454  -53.4924 O.2       3 UNK        -0.5102 
     57 CA         32.3939  -51.6102  -51.7738 C.3       3 UNK         0.0241 
     58 CB         33.0243  -53.0107  -51.7176 C.3       3 UNK        -0.1971 
     59 N          33.3515  -50.6237  -51.2556 N.am      3 UNK        -0.4139 
     60 C          33.1196  -49.3085  -51.1344 C.2       2 UNK         0.5016 
     61 O          32.0686  -48.7709  -51.4857 O.2       2 UNK        -0.5319 
     62 CA         34.2409  -48.4224  -50.5603 C.3       2 UNK         0.0286 
     63 CB         35.5083  -49.1887  -50.1140 C.3       2 UNK        -0.1963 
     64 N          34.5774  -47.3415  -51.4957 N.am      2 UNK        -0.4790 
     65 C          35.0696  -47.4730  -52.7388 C.2       1 UNK         0.5024 
     66 O          35.3575  -48.5614  -53.2391 O.2       1 UNK        -0.4888 
     67 H67        37.5971  -44.5137  -52.5177 H         1 UNK         0.0892 
     68 H68        37.3274  -44.0094  -50.8535 H         1 UNK         0.0892 
     69 H69        36.9990  -45.6725  -51.3168 H         1 UNK         0.0892 
     70 H70        33.8772  -44.6591  -53.1147 H         1 UNK         0.3107 
     71 H71        36.3191  -46.0996  -53.7838 H         1 UNK         0.0773 
     72 H72        33.5340  -46.7195  -54.8326 H         1 UNK         0.0680 
     73 H73        35.0765  -47.1385  -55.5278 H         1 UNK         0.0680 
     74 H74        32.6741  -46.1108  -56.9261 H         1 UNK         0.0650 
     75 H75        33.1138  -44.7462  -57.9132 H         1 UNK         0.0650 
     76 H76        32.0604  -45.1342  -54.2839 H         1 UNK         0.1397 
     77 H77        28.9491  -42.2163  -54.6480 H         1 UNK         0.1363 
     78 H78        31.3761  -43.1885  -58.0429 H         1 UNK         0.1355 
     79 H79        28.9658  -40.7608  -56.6794 H         1 UNK         0.0707 
     80 H80        29.9867  -41.1621  -58.0332 H         1 UNK         0.0707 
     81 H81        26.8548  -42.1322  -55.9983 H         1 UNK         0.1034 
     82 H82        26.3178  -40.9166  -57.1203 H         1 UNK         0.1034 
     83 H83        24.5077  -42.4688  -56.5805 H         1 UNK         0.0482 
     84 H84        25.1097  -44.3517  -59.4748 H         1 UNK         0.3460 
     85 H85        24.2617  -43.2595  -60.5480 H         1 UNK         0.3460 
     86 H86        26.4266  -44.5605  -57.0744 H         1 UNK         0.2989 
     87 H87        24.9348  -46.8703  -55.7016 H         1 UNK         0.0559 
     88 H88        23.7969  -47.3427  -58.5071 H         1 UNK         0.0848 
     89 H89        22.9155  -47.4716  -56.9917 H         1 UNK         0.0848 
     90 H90        24.2029  -48.6092  -57.3496 H         1 UNK         0.0848 
     91 H91        26.9005  -47.2943  -56.5440 H         1 UNK         0.3144 
     92 H92        28.3637  -47.2621  -59.8080 H         1 UNK         0.0727 
     93 H93        29.1262  -46.0782  -57.0788 H         1 UNK         0.0790 
     94 H94        29.1106  -45.2166  -58.6094 H         1 UNK         0.0790 
     95 H95        30.2567  -46.5216  -58.3545 H         1 UNK         0.0790 
     96 H96        29.1499  -48.5930  -57.4224 H         1 UNK         0.3215 
     97 H97        27.4039  -51.6763  -58.0359 H         1 UNK         0.0863 
     98 H98        29.7473  -52.4567  -57.6688 H         1 UNK         0.0808 
     99 H99        30.3568  -50.8441  -58.0396 H         1 UNK         0.0808 
    100 H100       29.5360  -51.7807  -59.2752 H         1 UNK         0.0808 
    101 H101       29.0406  -50.5547  -55.8937 H         1 UNK         0.3118 
    102 H102       26.3344  -49.6108  -53.8462 H         1 UNK         0.0546 
    103 H103       26.3309  -52.0479  -53.3916 H         1 UNK         0.0828 
    104 H104       27.3224  -51.2121  -52.2079 H         1 UNK         0.0828 
    105 H105       28.0812  -52.1098  -53.5229 H         1 UNK         0.0828 
    106 H106       29.1797  -49.8541  -53.4336 H         1 UNK         0.3005 
    107 H107       30.0305  -46.7048  -54.8564 H         1 UNK         0.1257 
    108 H108       31.0168  -46.4318  -52.4860 H         1 UNK         0.0775 
    109 H109       29.7067  -47.4018  -51.8932 H         1 UNK         0.0775 
    110 H110       29.6890  -42.9687  -52.4436 H         1 UNK         0.0840 
    111 H111       31.0228  -44.0693  -52.2500 H         1 UNK         0.0840 
    112 H112       31.5102  -48.6705  -53.3790 H         1 UNK         0.2987 
    113 H113       31.8207  -51.0358  -55.8686 H         1 UNK         0.0785 
    114 H114       33.3271  -49.4196  -57.1368 H         1 UNK         0.0798 
    115 H115       34.1606  -50.7619  -56.3720 H         1 UNK         0.0798 
    116 H116       34.2161  -49.1679  -55.6394 H         1 UNK         0.0798 
    117 H117       33.6079  -50.3851  -53.6917 H         1 UNK         0.3079 
    118 H118       31.5285  -51.5988  -51.1080 H         1 UNK         0.0794 
    119 H119       33.9202  -53.0759  -52.3365 H         1 UNK         0.0786 
    120 H120       32.3252  -53.7683  -52.0753 H         1 UNK         0.0786 
    121 H121       33.2985  -53.2830  -50.6982 H         1 UNK         0.0786 
    122 H122       34.2515  -50.9762  -50.9632 H         1 UNK         0.3032 
    123 H123       33.8167  -47.9469  -49.6743 H         1 UNK         0.1094 
    124 H124       36.2451  -48.5054  -49.6913 H         1 UNK         0.0794 
    125 H125       35.2753  -49.9188  -49.3376 H         1 UNK         0.0794 
    126 H126       35.9904  -49.7186  -50.9361 H         1 UNK         0.0794 
    127 H127       34.3187  -46.4122  -51.1947 H         1 UNK         0.3016 
@<TRIPOS>BOND
     1    1    2 1    
     2    1   67 1    
     3    1   68 1    
     4    1   69 1    
     5    2    3 2    
     6    2    4 am   BACKBONE|DICT|INTERRES
     7    4    5 1    
     8    4   70 1    
     9    5    6 1    
    10    5   65 1    
    11    5   71 1    
    12    6    7 1    
    13    6   72 1    
    14    6   73 1    
    15    7    8 1    
    16    8    9 1    
    17    8   74 1    
    18    8   75 1    
    19    9   10 ar   
    20    9   14 ar   
    21   10   11 ar   
    22   10   76 1    
    23   11   12 ar   
    24   11   48 1    
    25   12   13 ar   
    26   12   77 1    
    27   13   14 ar   
    28   13   15 1    
    29   14   78 1    
    30   15   16 1    
    31   15   79 1    
    32   15   80 1    
    33   16   17 1    
    34   17   18 1    
    35   17   81 1    
    36   17   82 1    
    37   18   19 1    
    38   18   22 1    
    39   18   83 1    
    40   19   20 am   BACKBONE|DICT|INTERRES
    41   19   21 2    
    42   20   84 1    
    43   20   85 1    
    44   22   23 am   BACKBONE|DICT|INTERRES
    45   22   86 1    
    46   23   24 2    
    47   23   25 1    
    48   25   26 1    
    49   25   27 1    
    50   25   87 1    
    51   26   88 1    
    52   26   89 1    
    53   26   90 1    
    54   27   28 am   BACKBONE|DICT|INTERRES
    55   27   91 1    
    56   28   29 2    
    57   28   30 1    
    58   30   31 1    
    59   30   32 1    
    60   30   92 1    
    61   31   93 1    
    62   31   94 1    
    63   31   95 1    
    64   32   33 am   BACKBONE|DICT|INTERRES
    65   32   96 1    
    66   33   34 2    
    67   33   35 1    
    68   35   36 1    
    69   35   37 1    
    70   35   97 1    
    71   36   98 1    
    72   36   99 1    
    73   36  100 1    
    74   37   38 am   BACKBONE|DICT|INTERRES
    75   37  101 1    
    76   38   39 2    
    77   38   40 1    
    78   40   41 1    
    79   40   42 1    
    80   40  102 1    
    81   41  103 1    
    82   41  104 1    
    83   41  105 1    
    84   42   43 am   BACKBONE|DICT|INTERRES
    85   42  106 1    
    86   43   44 2    
    87   43   45 1    
    88   45   46 1    
    89   45   49 1    
    90   45  107 1    
    91   46   47 1    
    92   46  108 1    
    93   46  109 1    
    94   47   48 1    
    95   48  110 1    
    96   48  111 1    
    97   49   50 am   BACKBONE|DICT|INTERRES
    98   49  112 1    
    99   50   51 2    
   100   50   52 1    
   101   52   53 1    
   102   52   54 1    
   103   52  113 1    
   104   53  114 1    
   105   53  115 1    
   106   53  116 1    
   107   54   55 am   BACKBONE|DICT|INTERRES
   108   54  117 1    
   109   55   56 2    
   110   55   57 1    
   111   57   58 1    
   112   57   59 1    
   113   57  118 1    
   114   58  119 1    
   115   58  120 1    
   116   58  121 1    
   117   59   60 am   BACKBONE|DICT|INTERRES
   118   59  122 1    
   119   60   61 2    
   120   60   62 1    
   121   62   63 1    
   122   62   64 1    
   123   62  123 1    
   124   63  124 1    
   125   63  125 1    
   126   63  126 1    
   127   64   65 am   BACKBONE|DICT|INTERRES
   128   64  127 1    
   129   65   66 2    
@<TRIPOS>SUBSTRUCTURE
     1 UNK         1 GROUP             0       ****    0 ROOT    
