@<TRIPOS>MOLECULE
3R134
127   129    1
SMALL
USER_CHARGES


@<TRIPOS>ATOM
      1 CA         34.5485  -41.6735  -51.2096 C.3       0 UNK        -0.1968 
      2 C          35.2056  -43.0432  -51.2956 C.2       0 UNK         0.4852 
      3 O          36.4327  -43.1385  -51.2426 O.2       0 UNK        -0.5359 
      4 N          34.3983  -44.0997  -51.4268 N.am      1 UNK        -0.4300 
      5 CA         34.8119  -45.4975  -51.5090 C.3       1 UNK         0.0863 
      6 C6         35.4760  -45.8593  -52.8739 C.3       11 UNK        -0.0953 
      7 S7         34.3432  -46.1485  -54.2813 S.3       11 UNK        -0.2369 
      8 C8         34.0582  -44.4622  -54.9098 C.3       11 UNK         0.0226 
      9 C9         32.5767  -44.2316  -55.1718 C.ar      11 UNK        -0.0699 
     10 C10        31.6988  -44.0795  -54.0961 C.ar      11 UNK        -0.0804 
     11 C11        30.3272  -43.9209  -54.3073 C.ar      11 UNK        -0.0871 
     12 C12        29.8362  -43.8938  -55.6143 C.ar      11 UNK        -0.1008 
     13 C13        30.7041  -44.0294  -56.7028 C.ar      11 UNK        -0.0735 
     14 C14        32.0749  -44.1925  -56.4767 C.ar      11 UNK        -0.0945 
     15 C15        30.1456  -44.0395  -58.1165 C.3       11 UNK         0.0169 
     16 S16        29.3907  -42.4401  -58.5478 S.3       11 UNK        -0.2669 
     17 C17        28.1465  -42.9587  -59.7790 C.3       11 UNK        -0.0850 
     18 CA         26.7171  -43.0500  -59.1778 C.3       10 UNK         0.0855 
     19 C          25.6510  -43.2503  -60.2959 C.2       10 UNK         0.5543 
     20 N          24.8514  -44.3099  -60.2770 N.am      10 UNK        -0.7343 
     21 O          25.5432  -42.4207  -61.1956 O.2       10 UNK        -0.5027 
     22 N          26.6488  -44.0378  -58.0870 N.am      10 UNK        -0.4495 
     23 C          25.7506  -44.0494  -57.0971 C.2       10 UNK         0.4903 
     24 O          24.8678  -43.2009  -56.9626 O.2       10 UNK        -0.4860 
     25 CA         25.8508  -45.2311  -56.1110 C.3       9 UNK         0.0227 
     26 CB         24.8783  -45.1035  -54.9245 C.3       9 UNK        -0.1964 
     27 N          25.6313  -46.5208  -56.7745 N.am      9 UNK        -0.4231 
     28 C          26.5353  -47.1570  -57.5291 C.2       9 UNK         0.5014 
     29 O          27.6529  -46.7026  -57.7756 O.2       9 UNK        -0.5270 
     30 CA         26.1117  -48.4861  -58.1582 C.3       8 UNK         0.0284 
     31 CB         25.9842  -48.3451  -59.6882 C.3       8 UNK        -0.1977 
     32 N          27.0971  -49.5067  -57.8086 N.am      8 UNK        -0.4342 
     33 C          26.8961  -50.8283  -57.8923 C.2       8 UNK         0.5039 
     34 O          25.8679  -51.3387  -58.3402 O.2       8 UNK        -0.5547 
     35 CA         28.0084  -51.7416  -57.3525 C.3       7 UNK         0.0281 
     36 CB         29.2415  -51.7452  -58.2723 C.3       7 UNK        -0.1963 
     37 N          28.3865  -51.3625  -55.9903 N.am      7 UNK        -0.4444 
     38 C          27.6634  -51.6609  -54.9006 C.2       7 UNK         0.5104 
     39 O          26.6574  -52.3713  -54.9208 O.2       7 UNK        -0.5100 
     40 CA         28.1274  -51.0711  -53.5558 C.3       6 UNK         0.0396 
     41 CB         29.0297  -52.0694  -52.8139 C.3       6 UNK        -0.1801 
     42 N          28.8283  -49.7934  -53.6901 N.am      6 UNK        -0.4747 
     43 C          28.2679  -48.6496  -54.1121 C.2       6 UNK         0.5012 
     44 O          27.0700  -48.5293  -54.3691 O.2       6 UNK        -0.5003 
     45 CA         29.2211  -47.4550  -54.3216 C.3       5 UNK         0.0782 
     46 C46        29.4080  -46.6440  -53.0109 C.3       11 UNK        -0.0868 
     47 S47        28.2612  -45.2255  -52.9473 S.3       11 UNK        -0.2515 
     48 C48        29.3828  -43.7962  -53.1181 C.3       11 UNK         0.0199 
     49 N          30.5013  -47.8599  -54.9144 N.am      5 UNK        -0.4607 
     50 C          30.6313  -48.4277  -56.1225 C.2       4 UNK         0.5031 
     51 O          29.6843  -48.6915  -56.8595 O.2       4 UNK        -0.5119 
     52 CA         32.0437  -48.8344  -56.5633 C.3       4 UNK         0.0263 
     53 CB         32.7524  -47.6825  -57.2881 C.3       4 UNK        -0.1967 
     54 N          32.8536  -49.3137  -55.4411 N.am      4 UNK        -0.4237 
     55 C          32.6614  -50.5097  -54.8674 C.2       3 UNK         0.4908 
     56 O          31.8094  -51.3187  -55.2376 O.2       3 UNK        -0.5102 
     57 CA         33.5621  -50.8600  -53.6743 C.3       3 UNK         0.0241 
     58 CB         35.0058  -51.1231  -54.1354 C.3       3 UNK        -0.1971 
     59 N          33.5632  -49.8671  -52.5950 N.am      3 UNK        -0.4139 
     60 C          32.4845  -49.4563  -51.9098 C.2       2 UNK         0.5016 
     61 O          31.3248  -49.7224  -52.2223 O.2       2 UNK        -0.5319 
     62 CA         32.7454  -48.6224  -50.6465 C.3       2 UNK         0.0286 
     63 CB         33.1134  -49.5385  -49.4675 C.3       2 UNK        -0.1963 
     64 N          33.8124  -47.6395  -50.8546 N.am      2 UNK        -0.4790 
     65 C          33.5824  -46.3598  -51.1684 C.2       1 UNK         0.5024 
     66 O          32.4554  -45.8575  -51.2143 O.2       1 UNK        -0.4888 
     67 H67        34.9089  -41.0340  -52.0149 H         1 UNK         0.0892 
     68 H68        33.4631  -41.7360  -51.2879 H         1 UNK         0.0892 
     69 H69        34.7937  -41.1981  -50.2603 H         1 UNK         0.0892 
     70 H70        33.3916  -43.9934  -51.3955 H         1 UNK         0.3107 
     71 H71        35.5442  -45.6618  -50.7155 H         1 UNK         0.0773 
     72 H72        36.0506  -46.7780  -52.7490 H         1 UNK         0.0680 
     73 H73        36.2123  -45.1067  -53.1592 H         1 UNK         0.0680 
     74 H74        34.4170  -43.7193  -54.1978 H         1 UNK         0.0650 
     75 H75        34.6419  -44.3207  -55.8204 H         1 UNK         0.0650 
     76 H76        32.0838  -44.1139  -53.0888 H         1 UNK         0.1397 
     77 H77        28.7759  -43.7743  -55.7867 H         1 UNK         0.1363 
     78 H78        32.7481  -44.3119  -57.3144 H         1 UNK         0.1355 
     79 H79        30.9219  -44.2749  -58.8461 H         1 UNK         0.0707 
     80 H80        29.4077  -44.8373  -58.1872 H         1 UNK         0.0707 
     81 H81        28.4380  -43.9080  -60.2325 H         1 UNK         0.1034 
     82 H82        28.1731  -42.2237  -60.5860 H         1 UNK         0.1034 
     83 H83        26.4914  -42.0752  -58.7409 H         1 UNK         0.0482 
     84 H84        24.1632  -44.4230  -61.0045 H         1 UNK         0.3460 
     85 H85        24.9185  -44.9825  -59.5319 H         1 UNK         0.3460 
     86 H86        27.2936  -44.8210  -58.1379 H         1 UNK         0.2989 
     87 H87        26.8624  -45.2227  -55.7015 H         1 UNK         0.0559 
     88 H88        23.8367  -45.1186  -55.2475 H         1 UNK         0.0848 
     89 H89        25.0413  -44.1685  -54.3866 H         1 UNK         0.0848 
     90 H90        25.0227  -45.9132  -54.2084 H         1 UNK         0.0848 
     91 H91        24.7238  -46.9440  -56.6421 H         1 UNK         0.3144 
     92 H92        25.1447  -48.7811  -57.7452 H         1 UNK         0.0727 
     93 H93        26.9411  -48.0946  -60.1481 H         1 UNK         0.0790 
     94 H94        25.2784  -47.5565  -59.9515 H         1 UNK         0.0790 
     95 H95        25.6237  -49.2651  -60.1481 H         1 UNK         0.0790 
     96 H96        27.9811  -49.1512  -57.4390 H         1 UNK         0.3215 
     97 H97        27.6185  -52.7619  -57.3277 H         1 UNK         0.0863 
     98 H98        29.6684  -50.7512  -58.3997 H         1 UNK         0.0808 
     99 H99        28.9791  -52.1114  -59.2656 H         1 UNK         0.0808 
    100 H100       30.0241  -52.3966  -57.8826 H         1 UNK         0.0808 
    101 H101       29.1869  -50.7525  -55.8871 H         1 UNK         0.3118 
    102 H102       27.2374  -50.8998  -52.9468 H         1 UNK         0.0546 
    103 H103       29.2941  -51.7031  -51.8218 H         1 UNK         0.0828 
    104 H104       29.9564  -52.2557  -53.3583 H         1 UNK         0.0828 
    105 H105       28.5280  -53.0290  -52.6825 H         1 UNK         0.0828 
    106 H106       29.8113  -49.7858  -53.4253 H         1 UNK         0.3005 
    107 H107       28.7516  -46.8154  -55.0737 H         1 UNK         0.1257 
    108 H108       30.4298  -46.2762  -52.9238 H         1 UNK         0.0775 
    109 H109       29.2622  -47.2579  -52.1196 H         1 UNK         0.0775 
    110 H110       28.7865  -42.8892  -53.2261 H         1 UNK         0.0840 
    111 H111       29.9447  -43.6829  -52.1894 H         1 UNK         0.0840 
    112 H112       31.3286  -47.7030  -54.3592 H         1 UNK         0.2987 
    113 H113       31.9377  -49.6528  -57.2795 H         1 UNK         0.0785 
    114 H114       33.7354  -47.9829  -57.6506 H         1 UNK         0.0798 
    115 H115       32.1728  -47.3522  -58.1513 H         1 UNK         0.0798 
    116 H116       32.8817  -46.8203  -56.6391 H         1 UNK         0.0798 
    117 H117       33.5660  -48.6958  -55.0782 H         1 UNK         0.3079 
    118 H118       33.1752  -51.7881  -53.2480 H         1 UNK         0.0794 
    119 H119       35.6157  -51.5178  -53.3225 H         1 UNK         0.0786 
    120 H120       35.4872  -50.2172  -54.5059 H         1 UNK         0.0786 
    121 H121       35.0310  -51.8587  -54.9408 H         1 UNK         0.0786 
    122 H122       34.4704  -49.5733  -52.2679 H         1 UNK         0.3032 
    123 H123       31.8092  -48.1191  -50.3920 H         1 UNK         0.1094 
    124 H124       32.3314  -50.2786  -49.2909 H         1 UNK         0.0794 
    125 H125       34.0424  -50.0818  -49.6444 H         1 UNK         0.0794 
    126 H126       33.2300  -48.9675  -48.5462 H         1 UNK         0.0794 
    127 H127       34.7661  -47.9679  -50.8014 H         1 UNK         0.3016 
@<TRIPOS>BOND
     1    1    2 1    
     2    1   67 1    
     3    1   68 1    
     4    1   69 1    
     5    2    3 2    
     6    2    4 am   BACKBONE|DICT|INTERRES
     7    4    5 1    
     8    4   70 1    
     9    5    6 1    
    10    5   65 1    
    11    5   71 1    
    12    6    7 1    
    13    6   72 1    
    14    6   73 1    
    15    7    8 1    
    16    8    9 1    
    17    8   74 1    
    18    8   75 1    
    19    9   10 ar   
    20    9   14 ar   
    21   10   11 ar   
    22   10   76 1    
    23   11   12 ar   
    24   11   48 1    
    25   12   13 ar   
    26   12   77 1    
    27   13   14 ar   
    28   13   15 1    
    29   14   78 1    
    30   15   16 1    
    31   15   79 1    
    32   15   80 1    
    33   16   17 1    
    34   17   18 1    
    35   17   81 1    
    36   17   82 1    
    37   18   19 1    
    38   18   22 1    
    39   18   83 1    
    40   19   20 am   BACKBONE|DICT|INTERRES
    41   19   21 2    
    42   20   84 1    
    43   20   85 1    
    44   22   23 am   BACKBONE|DICT|INTERRES
    45   22   86 1    
    46   23   24 2    
    47   23   25 1    
    48   25   26 1    
    49   25   27 1    
    50   25   87 1    
    51   26   88 1    
    52   26   89 1    
    53   26   90 1    
    54   27   28 am   BACKBONE|DICT|INTERRES
    55   27   91 1    
    56   28   29 2    
    57   28   30 1    
    58   30   31 1    
    59   30   32 1    
    60   30   92 1    
    61   31   93 1    
    62   31   94 1    
    63   31   95 1    
    64   32   33 am   BACKBONE|DICT|INTERRES
    65   32   96 1    
    66   33   34 2    
    67   33   35 1    
    68   35   36 1    
    69   35   37 1    
    70   35   97 1    
    71   36   98 1    
    72   36   99 1    
    73   36  100 1    
    74   37   38 am   BACKBONE|DICT|INTERRES
    75   37  101 1    
    76   38   39 2    
    77   38   40 1    
    78   40   41 1    
    79   40   42 1    
    80   40  102 1    
    81   41  103 1    
    82   41  104 1    
    83   41  105 1    
    84   42   43 am   BACKBONE|DICT|INTERRES
    85   42  106 1    
    86   43   44 2    
    87   43   45 1    
    88   45   46 1    
    89   45   49 1    
    90   45  107 1    
    91   46   47 1    
    92   46  108 1    
    93   46  109 1    
    94   47   48 1    
    95   48  110 1    
    96   48  111 1    
    97   49   50 am   BACKBONE|DICT|INTERRES
    98   49  112 1    
    99   50   51 2    
   100   50   52 1    
   101   52   53 1    
   102   52   54 1    
   103   52  113 1    
   104   53  114 1    
   105   53  115 1    
   106   53  116 1    
   107   54   55 am   BACKBONE|DICT|INTERRES
   108   54  117 1    
   109   55   56 2    
   110   55   57 1    
   111   57   58 1    
   112   57   59 1    
   113   57  118 1    
   114   58  119 1    
   115   58  120 1    
   116   58  121 1    
   117   59   60 am   BACKBONE|DICT|INTERRES
   118   59  122 1    
   119   60   61 2    
   120   60   62 1    
   121   62   63 1    
   122   62   64 1    
   123   62  123 1    
   124   63  124 1    
   125   63  125 1    
   126   63  126 1    
   127   64   65 am   BACKBONE|DICT|INTERRES
   128   64  127 1    
   129   65   66 2    
@<TRIPOS>SUBSTRUCTURE
     1 UNK         1 GROUP             0       ****    0 ROOT    
