@<TRIPOS>MOLECULE
3R134
127   129    1
SMALL
USER_CHARGES


@<TRIPOS>ATOM
      1 CA         29.8826  -43.2561  -50.9567 C.3       0 UNK        -0.1968 
      2 C          31.1406  -43.8931  -50.3830 C.2       0 UNK         0.4852 
      3 O          31.8951  -43.2259  -49.6740 O.2       0 UNK        -0.5359 
      4 N          31.3676  -45.1743  -50.6856 N.am      1 UNK        -0.4300 
      5 CA         32.5149  -45.9792  -50.2696 C.3       1 UNK         0.0863 
      6 C6         33.8607  -45.5174  -50.9028 C.3       11 UNK        -0.0953 
      7 S7         33.8709  -45.6019  -52.7258 S.3       11 UNK        -0.2369 
      8 C8         33.8675  -43.8434  -53.1914 C.3       11 UNK         0.0226 
      9 C9         33.1155  -43.6171  -54.4944 C.ar      11 UNK        -0.0699 
     10 C10        33.5718  -44.1861  -55.6866 C.ar      11 UNK        -0.0804 
     11 C11        32.8771  -43.9871  -56.8841 C.ar      11 UNK        -0.0871 
     12 C12        31.7184  -43.2023  -56.8862 C.ar      11 UNK        -0.1008 
     13 C13        31.2680  -42.6062  -55.7028 C.ar      11 UNK        -0.0735 
     14 C14        31.9657  -42.8240  -54.5116 C.ar      11 UNK        -0.0945 
     15 C15        30.0581  -41.6847  -55.7015 C.3       11 UNK         0.0169 
     16 S16        28.5875  -42.5008  -55.0136 S.3       11 UNK        -0.2669 
     17 C17        27.9098  -43.2990  -56.5049 C.3       11 UNK        -0.0850 
     18 CA         26.5427  -43.9777  -56.2221 C.3       10 UNK         0.0855 
     19 C          25.3922  -42.9292  -56.2198 C.2       10 UNK         0.5543 
     20 N          24.9645  -42.4717  -55.0511 N.am      10 UNK        -0.7343 
     21 O          24.9155  -42.5042  -57.2709 O.2       10 UNK        -0.5027 
     22 N          26.3102  -45.0896  -57.1559 N.am      10 UNK        -0.4495 
     23 C          25.2307  -45.8824  -57.1687 C.2       10 UNK         0.4903 
     24 O          24.3312  -45.8450  -56.3285 O.2       10 UNK        -0.4860 
     25 CA         25.1254  -46.8915  -58.3163 C.3       9 UNK         0.0227 
     26 CB         25.7344  -46.3992  -59.6463 C.3       9 UNK        -0.1964 
     27 N          25.7380  -48.1533  -57.9129 N.am      9 UNK        -0.4231 
     28 C          25.2891  -49.3628  -58.2705 C.2       9 UNK         0.5014 
     29 O          24.2901  -49.5399  -58.9702 O.2       9 UNK        -0.5270 
     30 CA         26.0840  -50.5930  -57.8023 C.3       8 UNK         0.0284 
     31 CB         26.8533  -51.2066  -58.9845 C.3       8 UNK        -0.1977 
     32 N          27.0211  -50.3082  -56.7113 N.am      8 UNK        -0.4342 
     33 C          26.6808  -50.2909  -55.4154 C.2       8 UNK         0.5039 
     34 O          25.5311  -50.4655  -55.0090 O.2       8 UNK        -0.5547 
     35 CA         27.8082  -50.0546  -54.3965 C.3       7 UNK         0.0281 
     36 CB         28.6405  -51.3317  -54.1984 C.3       7 UNK        -0.1963 
     37 N          28.6939  -48.9452  -54.7510 N.am      7 UNK        -0.4444 
     38 C          28.3325  -47.6554  -54.7635 C.2       7 UNK         0.5104 
     39 O          27.1954  -47.2577  -54.5142 O.2       7 UNK        -0.5100 
     40 CA         29.4237  -46.6377  -55.1229 C.3       6 UNK         0.0396 
     41 CB         30.3186  -46.3339  -53.9150 C.3       6 UNK        -0.1801 
     42 N          30.2415  -47.0985  -56.2428 N.am      6 UNK        -0.4747 
     43 C          29.8718  -47.0096  -57.5273 C.2       6 UNK         0.5012 
     44 O          28.8376  -46.4568  -57.9031 O.2       6 UNK        -0.5003 
     45 CA         30.7825  -47.6789  -58.5759 C.3       5 UNK         0.0782 
     46 C46        31.7812  -46.6725  -59.2037 C.3       11 UNK        -0.0868 
     47 S47        33.2925  -46.3930  -58.2113 S.3       11 UNK        -0.2515 
     48 C48        33.4239  -44.5771  -58.1757 C.3       11 UNK         0.0199 
     49 N          31.4490  -48.8880  -58.0796 N.am      5 UNK        -0.4607 
     50 C          30.8283  -50.0127  -57.7047 C.2       4 UNK         0.5031 
     51 O          29.6113  -50.1725  -57.7601 O.2       4 UNK        -0.5119 
     52 CA         31.7073  -51.1292  -57.1179 C.3       4 UNK         0.0263 
     53 CB         32.2998  -51.9934  -58.2419 C.3       4 UNK        -0.1967 
     54 N          32.7841  -50.6399  -56.2493 N.am      4 UNK        -0.4237 
     55 C          32.6041  -49.8925  -55.1513 C.2       3 UNK         0.4908 
     56 O          31.5046  -49.4830  -54.7725 O.2       3 UNK        -0.5102 
     57 CA         33.8762  -49.4847  -54.3921 C.3       3 UNK         0.0241 
     58 CB         34.4742  -48.2178  -55.0252 C.3       3 UNK        -0.1971 
     59 N          33.6248  -49.2480  -52.9661 N.am      3 UNK        -0.4139 
     60 C          33.2784  -50.1998  -52.0852 C.2       2 UNK         0.5016 
     61 O          33.1668  -51.3900  -52.3855 O.2       2 UNK        -0.5319 
     62 CA         33.0532  -49.7877  -50.6149 C.3       2 UNK         0.0286 
     63 CB         34.0441  -50.5167  -49.6898 C.3       2 UNK        -0.1963 
     64 N          33.1685  -48.3457  -50.3725 N.am      2 UNK        -0.4790 
     65 C          32.1797  -47.4601  -50.5485 C.2       1 UNK         0.5024 
     66 O          31.0470  -47.7739  -50.9250 O.2       1 UNK        -0.4888 
     67 H67        29.3672  -43.9196  -51.6508 H         1 UNK         0.0892 
     68 H68        29.1919  -42.9996  -50.1539 H         1 UNK         0.0892 
     69 H69        30.1351  -42.3421  -51.4934 H         1 UNK         0.0892 
     70 H70        30.6905  -45.7114  -51.2129 H         1 UNK         0.3107 
     71 H71        32.5992  -45.8873  -49.1849 H         1 UNK         0.0773 
     72 H72        34.0941  -44.5019  -50.5819 H         1 UNK         0.0680 
     73 H73        34.6915  -46.1183  -50.5311 H         1 UNK         0.0680 
     74 H74        34.8965  -43.4972  -53.2952 H         1 UNK         0.0650 
     75 H75        33.4191  -43.2505  -52.3933 H         1 UNK         0.0650 
     76 H76        34.4686  -44.7909  -55.6808 H         1 UNK         0.1397 
     77 H77        31.1840  -43.0317  -57.8107 H         1 UNK         0.1363 
     78 H78        31.6126  -42.3662  -53.5980 H         1 UNK         0.1355 
     79 H79        29.8484  -41.3122  -56.7053 H         1 UNK         0.0707 
     80 H80        30.2807  -40.8047  -55.0960 H         1 UNK         0.0707 
     81 H81        27.8275  -42.5688  -57.3127 H         1 UNK         0.1034 
     82 H82        28.6473  -44.0249  -56.8466 H         1 UNK         0.1034 
     83 H83        26.5849  -44.4409  -55.2339 H         1 UNK         0.0482 
     84 H84        25.3722  -42.7974  -54.1886 H         1 UNK         0.3460 
     85 H85        24.2297  -41.7822  -55.0308 H         1 UNK         0.3460 
     86 H86        27.0380  -45.2599  -57.8383 H         1 UNK         0.2989 
     87 H87        24.0562  -47.0422  -58.4814 H         1 UNK         0.0559 
     88 H88        26.8223  -46.3474  -59.6119 H         1 UNK         0.0848 
     89 H89        25.3620  -45.4073  -59.9059 H         1 UNK         0.0848 
     90 H90        25.4666  -47.0660  -60.4660 H         1 UNK         0.0848 
     91 H91        26.5401  -48.0902  -57.3004 H         1 UNK         0.3144 
     92 H92        25.3604  -51.3350  -57.4576 H         1 UNK         0.0727 
     93 H93        27.4232  -52.0838  -58.6774 H         1 UNK         0.0790 
     94 H94        27.5486  -50.4925  -59.4276 H         1 UNK         0.0790 
     95 H95        26.1692  -51.5239  -59.7726 H         1 UNK         0.0790 
     96 H96        27.9989  -50.1828  -56.9768 H         1 UNK         0.3215 
     97 H97        27.3409  -49.8076  -53.4407 H         1 UNK         0.0863 
     98 H98        29.4085  -51.1914  -53.4371 H         1 UNK         0.0808 
     99 H99        29.1361  -51.6365  -55.1199 H         1 UNK         0.0808 
    100 H100       28.0104  -52.1619  -53.8766 H         1 UNK         0.0808 
    101 H101       29.6739  -49.1707  -54.9123 H         1 UNK         0.3118 
    102 H102       28.9282  -45.7084  -55.3990 H         1 UNK         0.0546 
    103 H103       29.7196  -45.9966  -53.0696 H         1 UNK         0.0828 
    104 H104       31.0321  -45.5444  -54.1453 H         1 UNK         0.0828 
    105 H105       30.8819  -47.2089  -53.5912 H         1 UNK         0.0828 
    106 H106       31.0802  -47.6143  -56.0125 H         1 UNK         0.3005 
    107 H107       30.1093  -48.0024  -59.3736 H         1 UNK         0.1257 
    108 H108       31.2874  -45.7236  -59.4225 H         1 UNK         0.0775 
    109 H109       32.1066  -47.0555  -60.1720 H         1 UNK         0.0775 
    110 H110       34.4780  -44.3091  -58.2608 H         1 UNK         0.0840 
    111 H111       32.9376  -44.1401  -59.0489 H         1 UNK         0.0840 
    112 H112       32.4522  -48.8261  -57.9832 H         1 UNK         0.2987 
    113 H113       31.0632  -51.7647  -56.5079 H         1 UNK         0.0785 
    114 H114       31.5130  -52.3823  -58.8900 H         1 UNK         0.0798 
    115 H115       32.8389  -52.8520  -57.8409 H         1 UNK         0.0798 
    116 H116       32.9885  -51.4265  -58.8697 H         1 UNK         0.0798 
    117 H117       33.7232  -50.9162  -56.4983 H         1 UNK         0.3079 
    118 H118       34.6055  -50.2939  -54.4697 H         1 UNK         0.0794 
    119 H119       33.7506  -47.4019  -55.0536 H         1 UNK         0.0786 
    120 H120       34.7874  -48.4029  -56.0534 H         1 UNK         0.0786 
    121 H121       35.3523  -47.8720  -54.4795 H         1 UNK         0.0786 
    122 H122       33.6647  -48.2905  -52.6486 H         1 UNK         0.3032 
    123 H123       32.0438  -50.1122  -50.3506 H         1 UNK         0.1094 
    124 H124       35.0777  -50.2516  -49.9158 H         1 UNK         0.0794 
    125 H125       33.8569  -50.2803  -48.6422 H         1 UNK         0.0794 
    126 H126       33.9558  -51.5991  -49.7937 H         1 UNK         0.0794 
    127 H127       34.0726  -48.0131  -50.0674 H         1 UNK         0.3016 
@<TRIPOS>BOND
     1    1    2 1    
     2    1   67 1    
     3    1   68 1    
     4    1   69 1    
     5    2    3 2    
     6    2    4 am   BACKBONE|DICT|INTERRES
     7    4    5 1    
     8    4   70 1    
     9    5    6 1    
    10    5   65 1    
    11    5   71 1    
    12    6    7 1    
    13    6   72 1    
    14    6   73 1    
    15    7    8 1    
    16    8    9 1    
    17    8   74 1    
    18    8   75 1    
    19    9   10 ar   
    20    9   14 ar   
    21   10   11 ar   
    22   10   76 1    
    23   11   12 ar   
    24   11   48 1    
    25   12   13 ar   
    26   12   77 1    
    27   13   14 ar   
    28   13   15 1    
    29   14   78 1    
    30   15   16 1    
    31   15   79 1    
    32   15   80 1    
    33   16   17 1    
    34   17   18 1    
    35   17   81 1    
    36   17   82 1    
    37   18   19 1    
    38   18   22 1    
    39   18   83 1    
    40   19   20 am   BACKBONE|DICT|INTERRES
    41   19   21 2    
    42   20   84 1    
    43   20   85 1    
    44   22   23 am   BACKBONE|DICT|INTERRES
    45   22   86 1    
    46   23   24 2    
    47   23   25 1    
    48   25   26 1    
    49   25   27 1    
    50   25   87 1    
    51   26   88 1    
    52   26   89 1    
    53   26   90 1    
    54   27   28 am   BACKBONE|DICT|INTERRES
    55   27   91 1    
    56   28   29 2    
    57   28   30 1    
    58   30   31 1    
    59   30   32 1    
    60   30   92 1    
    61   31   93 1    
    62   31   94 1    
    63   31   95 1    
    64   32   33 am   BACKBONE|DICT|INTERRES
    65   32   96 1    
    66   33   34 2    
    67   33   35 1    
    68   35   36 1    
    69   35   37 1    
    70   35   97 1    
    71   36   98 1    
    72   36   99 1    
    73   36  100 1    
    74   37   38 am   BACKBONE|DICT|INTERRES
    75   37  101 1    
    76   38   39 2    
    77   38   40 1    
    78   40   41 1    
    79   40   42 1    
    80   40  102 1    
    81   41  103 1    
    82   41  104 1    
    83   41  105 1    
    84   42   43 am   BACKBONE|DICT|INTERRES
    85   42  106 1    
    86   43   44 2    
    87   43   45 1    
    88   45   46 1    
    89   45   49 1    
    90   45  107 1    
    91   46   47 1    
    92   46  108 1    
    93   46  109 1    
    94   47   48 1    
    95   48  110 1    
    96   48  111 1    
    97   49   50 am   BACKBONE|DICT|INTERRES
    98   49  112 1    
    99   50   51 2    
   100   50   52 1    
   101   52   53 1    
   102   52   54 1    
   103   52  113 1    
   104   53  114 1    
   105   53  115 1    
   106   53  116 1    
   107   54   55 am   BACKBONE|DICT|INTERRES
   108   54  117 1    
   109   55   56 2    
   110   55   57 1    
   111   57   58 1    
   112   57   59 1    
   113   57  118 1    
   114   58  119 1    
   115   58  120 1    
   116   58  121 1    
   117   59   60 am   BACKBONE|DICT|INTERRES
   118   59  122 1    
   119   60   61 2    
   120   60   62 1    
   121   62   63 1    
   122   62   64 1    
   123   62  123 1    
   124   63  124 1    
   125   63  125 1    
   126   63  126 1    
   127   64   65 am   BACKBONE|DICT|INTERRES
   128   64  127 1    
   129   65   66 2    
@<TRIPOS>SUBSTRUCTURE
     1 UNK         1 GROUP             0       ****    0 ROOT    
