@<TRIPOS>MOLECULE
3R134
127   129    1
SMALL
USER_CHARGES


@<TRIPOS>ATOM
      1 CA         37.9737  -47.8489  -51.4352 C.3       0 UNK        -0.1968 
      2 C          36.7175  -47.5746  -52.2479 C.2       0 UNK         0.4852 
      3 O          36.1858  -48.4917  -52.8763 O.2       0 UNK        -0.5359 
      4 N          36.2300  -46.3235  -52.2285 N.am      1 UNK        -0.4300 
      5 CA         35.0473  -45.8569  -52.9699 C.3       1 UNK         0.0863 
      6 C6         34.8463  -44.3142  -52.8437 C.3       11 UNK        -0.0953 
      7 S7         34.8661  -43.3914  -54.4244 S.3       11 UNK        -0.2369 
      8 C8         33.6100  -44.2045  -55.4689 C.3       11 UNK         0.0226 
      9 C9         32.1954  -43.6663  -55.2796 C.ar      11 UNK        -0.0699 
     10 C10        31.5076  -43.8528  -54.0778 C.ar      11 UNK        -0.0804 
     11 C11        30.1971  -43.3940  -53.9243 C.ar      11 UNK        -0.0871 
     12 C12        29.5631  -42.7590  -54.9960 C.ar      11 UNK        -0.1008 
     13 C13        30.2320  -42.5688  -56.2146 C.ar      11 UNK        -0.0735 
     14 C14        31.5493  -43.0218  -56.3386 C.ar      11 UNK        -0.0945 
     15 C15        29.5880  -41.9089  -57.4367 C.3       11 UNK         0.0169 
     16 S16        27.8912  -41.2796  -57.2023 S.3       11 UNK        -0.2669 
     17 C17        27.2923  -41.2315  -58.9249 C.3       11 UNK        -0.0850 
     18 CA         26.3797  -42.4426  -59.2737 C.3       10 UNK         0.0855 
     19 C          25.5747  -42.2176  -60.5881 C.2       10 UNK         0.5543 
     20 N          25.3987  -43.2210  -61.4405 N.am      10 UNK        -0.7343 
     21 O          25.0830  -41.1195  -60.8372 O.2       10 UNK        -0.5027 
     22 N          27.1232  -43.7173  -59.2807 N.am      10 UNK        -0.4495 
     23 C          27.0545  -44.6635  -58.3378 C.2       10 UNK         0.4903 
     24 O          26.4240  -44.5487  -57.2838 O.2       10 UNK        -0.4860 
     25 CA         27.8414  -45.9592  -58.6259 C.3       9 UNK         0.0227 
     26 CB         29.3079  -45.8029  -58.1905 C.3       9 UNK        -0.1964 
     27 N          27.2508  -47.1232  -57.9535 N.am      9 UNK        -0.4231 
     28 C          26.0147  -47.5861  -58.1967 C.2       9 UNK         0.5014 
     29 O          25.3288  -47.2197  -59.1546 O.2       9 UNK        -0.5270 
     30 CA         25.4297  -48.5772  -57.1742 C.3       8 UNK         0.0284 
     31 CB         24.0931  -49.2103  -57.6216 C.3       8 UNK        -0.1977 
     32 N          26.3842  -49.5941  -56.7267 N.am      8 UNK        -0.4342 
     33 C          26.8917  -50.6179  -57.4303 C.2       8 UNK         0.5039 
     34 O          26.6358  -50.8236  -58.6178 O.2       8 UNK        -0.5547 
     35 CA         27.8330  -51.5970  -56.6943 C.3       7 UNK         0.0281 
     36 CB         29.1413  -51.8078  -57.4763 C.3       7 UNK        -0.1963 
     37 N          28.1506  -51.1795  -55.3247 N.am      7 UNK        -0.4444 
     38 C          27.3751  -51.3885  -54.2519 C.2       7 UNK         0.5104 
     39 O          26.3323  -52.0419  -54.2805 O.2       7 UNK        -0.5100 
     40 CA         27.8071  -50.7191  -52.9328 C.3       6 UNK         0.0396 
     41 CB         28.6322  -51.6971  -52.0825 C.3       6 UNK        -0.1801 
     42 N          28.5658  -49.4767  -53.1203 N.am      6 UNK        -0.4747 
     43 C          28.0935  -48.3596  -53.6969 C.2       6 UNK         0.5012 
     44 O          26.9382  -48.2431  -54.1060 O.2       6 UNK        -0.5003 
     45 CA         29.1098  -47.2233  -53.9436 C.3       5 UNK         0.0782 
     46 C46        29.3721  -46.3878  -52.6646 C.3       11 UNK        -0.0868 
     47 S47        28.2833  -44.9280  -52.5834 S.3       11 UNK        -0.2515 
     48 C48        29.4783  -43.5516  -52.5895 C.3       11 UNK         0.0199 
     49 N          30.3489  -47.7340  -54.5369 N.am      5 UNK        -0.4607 
     50 C          30.4187  -48.3614  -55.7186 C.2       4 UNK         0.5031 
     51 O          29.4520  -48.5087  -56.4647 O.2       4 UNK        -0.5119 
     52 CA         31.7737  -48.9665  -56.1132 C.3       4 UNK         0.0263 
     53 CB         32.6306  -47.9433  -56.8692 C.3       4 UNK        -0.1967 
     54 N          32.5016  -49.4684  -54.9456 N.am      4 UNK        -0.4237 
     55 C          32.2013  -50.6148  -54.3182 C.2       3 UNK         0.4908 
     56 O          31.3255  -51.3921  -54.6977 O.2       3 UNK        -0.5102 
     57 CA         32.9847  -50.9322  -53.0331 C.3       3 UNK         0.0241 
     58 CB         34.3491  -51.5559  -53.3665 C.3       3 UNK        -0.1971 
     59 N          33.1750  -49.7573  -52.1788 N.am      3 UNK        -0.4139 
     60 C          32.1786  -49.1084  -51.5571 C.2       2 UNK         0.5016 
     61 O          30.9985  -49.4505  -51.6165 O.2       2 UNK        -0.5319 
     62 CA         32.5416  -47.8346  -50.7726 C.3       2 UNK         0.0286 
     63 CB         32.8356  -48.1779  -49.3042 C.3       2 UNK        -0.1963 
     64 N          33.6679  -47.0764  -51.3277 N.am      2 UNK        -0.4790 
     65 C          33.7583  -46.6204  -52.5866 C.2       1 UNK         0.5024 
     66 O          32.8880  -46.8111  -53.4359 O.2       1 UNK        -0.4888 
     67 H67        38.3333  -46.9561  -50.9239 H         1 UNK         0.0892 
     68 H68        37.7749  -48.6133  -50.6846 H         1 UNK         0.0892 
     69 H69        38.7689  -48.2100  -52.0868 H         1 UNK         0.0892 
     70 H70        36.7153  -45.6189  -51.6910 H         1 UNK         0.3107 
     71 H71        35.2543  -46.1085  -54.0113 H         1 UNK         0.0773 
     72 H72        35.6479  -43.8796  -52.2445 H         1 UNK         0.0680 
     73 H73        33.9422  -44.0481  -52.2945 H         1 UNK         0.0680 
     74 H74        33.9191  -44.0737  -56.5069 H         1 UNK         0.0650 
     75 H75        33.6166  -45.2754  -55.3040 H         1 UNK         0.0650 
     76 H76        31.9891  -44.3575  -53.2566 H         1 UNK         0.1397 
     77 H77        28.5451  -42.4220  -54.8647 H         1 UNK         0.1363 
     78 H78        32.0694  -42.8858  -57.2772 H         1 UNK         0.1355 
     79 H79        30.2159  -41.0807  -57.7685 H         1 UNK         0.0707 
     80 H80        29.5830  -42.6365  -58.2480 H         1 UNK         0.0707 
     81 H81        28.1319  -41.1655  -59.6188 H         1 UNK         0.1034 
     82 H82        26.7448  -40.2933  -59.0328 H         1 UNK         0.1034 
     83 H83        25.6036  -42.4931  -58.5078 H         1 UNK         0.0482 
     84 H84        25.7384  -44.1455  -61.2289 H         1 UNK         0.3460 
     85 H85        24.8703  -43.0608  -62.2840 H         1 UNK         0.3460 
     86 H86        27.6707  -43.8921  -60.1116 H         1 UNK         0.2989 
     87 H87        27.8169  -46.1504  -59.7006 H         1 UNK         0.0559 
     88 H88        29.3948  -45.6086  -57.1202 H         1 UNK         0.0848 
     89 H89        29.7884  -44.9749  -58.7115 H         1 UNK         0.0848 
     90 H90        29.8847  -46.6980  -58.4208 H         1 UNK         0.0848 
     91 H91        27.7896  -47.5332  -57.1979 H         1 UNK         0.3144 
     92 H92        25.2115  -47.9779  -56.2890 H         1 UNK         0.0727 
     93 H93        24.1995  -49.7750  -58.5482 H         1 UNK         0.0790 
     94 H94        23.3386  -48.4426  -57.7971 H         1 UNK         0.0790 
     95 H95        23.6979  -49.8830  -56.8605 H         1 UNK         0.0790 
     96 H96        26.6972  -49.4805  -55.7687 H         1 UNK         0.3215 
     97 H97        27.3162  -52.5580  -56.6500 H         1 UNK         0.0863 
     98 H98        29.6523  -50.8655  -57.6689 H         1 UNK         0.0808 
     99 H99        28.9453  -52.2700  -58.4445 H         1 UNK         0.0808 
    100 H100       29.8286  -52.4617  -56.9391 H         1 UNK         0.0808 
    101 H101       29.0000  -50.6434  -55.2036 H         1 UNK         0.3118 
    102 H102       26.8994  -50.4696  -52.3798 H         1 UNK         0.0546 
    103 H103       28.8674  -51.2726  -51.1064 H         1 UNK         0.0828 
    104 H104       29.5734  -51.9575  -52.5683 H         1 UNK         0.0828 
    105 H105       28.0852  -52.6247  -51.9093 H         1 UNK         0.0828 
    106 H106       29.5204  -49.4758  -52.7637 H         1 UNK         0.3005 
    107 H107       28.6726  -46.5702  -54.7034 H         1 UNK         0.1257 
    108 H108       30.4058  -46.0458  -52.6379 H         1 UNK         0.0775 
    109 H109       29.2464  -46.9771  -51.7539 H         1 UNK         0.0775 
    110 H110       28.9448  -42.6280  -52.3599 H         1 UNK         0.0840 
    111 H111       30.1948  -43.6910  -51.7782 H         1 UNK         0.0840 
    112 H112       31.2055  -47.5897  -54.0117 H         1 UNK         0.2987 
    113 H113       31.5846  -49.8040  -56.7874 H         1 UNK         0.0785 
    114 H114       33.5946  -48.3634  -57.1563 H         1 UNK         0.0798 
    115 H115       32.1326  -47.6177  -57.7831 H         1 UNK         0.0798 
    116 H116       32.8136  -47.0575  -56.2666 H         1 UNK         0.0798 
    117 H117       33.1946  -48.8553  -54.5380 H         1 UNK         0.3079 
    118 H118       32.4049  -51.6651  -52.4677 H         1 UNK         0.0794 
    119 H119       34.8773  -51.8599  -52.4627 H         1 UNK         0.0786 
    120 H120       34.9905  -50.8609  -53.9104 H         1 UNK         0.0786 
    121 H121       34.2305  -52.4454  -53.9869 H         1 UNK         0.0786 
    122 H122       34.1141  -49.3849  -52.1108 H         1 UNK         0.3032 
    123 H123       31.6667  -47.1826  -50.7995 H         1 UNK         0.1094 
    124 H124       32.0045  -48.7261  -48.8577 H         1 UNK         0.0794 
    125 H125       33.7266  -48.7992  -49.2047 H         1 UNK         0.0794 
    126 H126       32.9838  -47.2779  -48.7070 H         1 UNK         0.0794 
    127 H127       34.4362  -46.8843  -50.7010 H         1 UNK         0.3016 
@<TRIPOS>BOND
     1    1    2 1    
     2    1   67 1    
     3    1   68 1    
     4    1   69 1    
     5    2    3 2    
     6    2    4 am   BACKBONE|DICT|INTERRES
     7    4    5 1    
     8    4   70 1    
     9    5    6 1    
    10    5   65 1    
    11    5   71 1    
    12    6    7 1    
    13    6   72 1    
    14    6   73 1    
    15    7    8 1    
    16    8    9 1    
    17    8   74 1    
    18    8   75 1    
    19    9   10 ar   
    20    9   14 ar   
    21   10   11 ar   
    22   10   76 1    
    23   11   12 ar   
    24   11   48 1    
    25   12   13 ar   
    26   12   77 1    
    27   13   14 ar   
    28   13   15 1    
    29   14   78 1    
    30   15   16 1    
    31   15   79 1    
    32   15   80 1    
    33   16   17 1    
    34   17   18 1    
    35   17   81 1    
    36   17   82 1    
    37   18   19 1    
    38   18   22 1    
    39   18   83 1    
    40   19   20 am   BACKBONE|DICT|INTERRES
    41   19   21 2    
    42   20   84 1    
    43   20   85 1    
    44   22   23 am   BACKBONE|DICT|INTERRES
    45   22   86 1    
    46   23   24 2    
    47   23   25 1    
    48   25   26 1    
    49   25   27 1    
    50   25   87 1    
    51   26   88 1    
    52   26   89 1    
    53   26   90 1    
    54   27   28 am   BACKBONE|DICT|INTERRES
    55   27   91 1    
    56   28   29 2    
    57   28   30 1    
    58   30   31 1    
    59   30   32 1    
    60   30   92 1    
    61   31   93 1    
    62   31   94 1    
    63   31   95 1    
    64   32   33 am   BACKBONE|DICT|INTERRES
    65   32   96 1    
    66   33   34 2    
    67   33   35 1    
    68   35   36 1    
    69   35   37 1    
    70   35   97 1    
    71   36   98 1    
    72   36   99 1    
    73   36  100 1    
    74   37   38 am   BACKBONE|DICT|INTERRES
    75   37  101 1    
    76   38   39 2    
    77   38   40 1    
    78   40   41 1    
    79   40   42 1    
    80   40  102 1    
    81   41  103 1    
    82   41  104 1    
    83   41  105 1    
    84   42   43 am   BACKBONE|DICT|INTERRES
    85   42  106 1    
    86   43   44 2    
    87   43   45 1    
    88   45   46 1    
    89   45   49 1    
    90   45  107 1    
    91   46   47 1    
    92   46  108 1    
    93   46  109 1    
    94   47   48 1    
    95   48  110 1    
    96   48  111 1    
    97   49   50 am   BACKBONE|DICT|INTERRES
    98   49  112 1    
    99   50   51 2    
   100   50   52 1    
   101   52   53 1    
   102   52   54 1    
   103   52  113 1    
   104   53  114 1    
   105   53  115 1    
   106   53  116 1    
   107   54   55 am   BACKBONE|DICT|INTERRES
   108   54  117 1    
   109   55   56 2    
   110   55   57 1    
   111   57   58 1    
   112   57   59 1    
   113   57  118 1    
   114   58  119 1    
   115   58  120 1    
   116   58  121 1    
   117   59   60 am   BACKBONE|DICT|INTERRES
   118   59  122 1    
   119   60   61 2    
   120   60   62 1    
   121   62   63 1    
   122   62   64 1    
   123   62  123 1    
   124   63  124 1    
   125   63  125 1    
   126   63  126 1    
   127   64   65 am   BACKBONE|DICT|INTERRES
   128   64  127 1    
   129   65   66 2    
@<TRIPOS>SUBSTRUCTURE
     1 UNK         1 GROUP             0       ****    0 ROOT    
