@<TRIPOS>MOLECULE
3R134
127   129    1
SMALL
USER_CHARGES


@<TRIPOS>ATOM
      1 CA         28.8460  -44.8176  -52.0180 C.3       0 UNK        -0.1968 
      2 C          30.1474  -44.8844  -51.2321 C.2       0 UNK         0.4852 
      3 O          30.1225  -45.2092  -50.0442 O.2       0 UNK        -0.5359 
      4 N          31.2777  -44.5643  -51.8784 N.am      1 UNK        -0.4300 
      5 CA         32.6100  -44.5022  -51.2596 C.3       1 UNK         0.0863 
      6 C6         33.6401  -43.7816  -52.1625 C.3       11 UNK        -0.0953 
      7 S7         33.1192  -42.0766  -52.5500 S.3       11 UNK        -0.2369 
      8 C8         33.8606  -41.8139  -54.1918 C.3       11 UNK         0.0226 
      9 C9         33.2349  -42.6843  -55.2744 C.ar      11 UNK        -0.0699 
     10 C10        34.0200  -43.6093  -55.9705 C.ar      11 UNK        -0.0804 
     11 C11        33.4681  -44.3845  -56.9957 C.ar      11 UNK        -0.0871 
     12 C12        32.1153  -44.2307  -57.3160 C.ar      11 UNK        -0.1008 
     13 C13        31.3231  -43.2969  -56.6412 C.ar      11 UNK        -0.0735 
     14 C14        31.8875  -42.5292  -55.6181 C.ar      11 UNK        -0.0945 
     15 C15        29.8782  -43.0744  -57.0646 C.3       11 UNK         0.0169 
     16 S16        28.7021  -43.9024  -55.9546 S.3       11 UNK        -0.2669 
     17 C17        27.1950  -43.8123  -56.9760 C.3       11 UNK        -0.0850 
     18 CA         25.9156  -44.2201  -56.2029 C.3       10 UNK         0.0855 
     19 C          24.6534  -43.9077  -57.0482 C.2       10 UNK         0.5543 
     20 N          24.2686  -44.7759  -57.9754 N.am      10 UNK        -0.7343 
     21 O          24.0227  -42.8700  -56.8624 O.2       10 UNK        -0.5027 
     22 N          25.9458  -45.6289  -55.7826 N.am      10 UNK        -0.4495 
     23 C          25.3766  -46.0956  -54.6629 C.2       10 UNK         0.4903 
     24 O          24.8597  -45.3750  -53.8073 O.2       10 UNK        -0.4860 
     25 CA         25.3967  -47.6262  -54.4632 C.3       9 UNK         0.0227 
     26 CB         24.4443  -48.1085  -53.3476 C.3       9 UNK        -0.1964 
     27 N          25.1730  -48.3622  -55.7131 N.am      9 UNK        -0.4231 
     28 C          24.0756  -48.3312  -56.4889 C.2       9 UNK         0.5014 
     29 O          23.0348  -47.7488  -56.1798 O.2       9 UNK        -0.5270 
     30 CA         24.1579  -49.0664  -57.8472 C.3       8 UNK         0.0284 
     31 CB         23.1949  -48.4753  -58.8994 C.3       8 UNK        -0.1977 
     32 N          25.5197  -49.1581  -58.3950 N.am      8 UNK        -0.4342 
     33 C          26.3497  -48.1392  -58.6592 C.2       8 UNK         0.5039 
     34 O          26.0623  -46.9492  -58.5030 O.2       8 UNK        -0.5547 
     35 CA         27.7772  -48.5175  -59.0875 C.3       7 UNK         0.0281 
     36 CB         28.0798  -47.9912  -60.4994 C.3       7 UNK        -0.1963 
     37 N          28.7647  -47.9812  -58.1480 N.am      7 UNK        -0.4444 
     38 C          28.7880  -48.2106  -56.8290 C.2       7 UNK         0.5104 
     39 O          28.0356  -49.0020  -56.2549 O.2       7 UNK        -0.5100 
     40 CA         29.8028  -47.3894  -56.0223 C.3       6 UNK         0.0396 
     41 CB         29.3476  -47.1670  -54.5715 C.3       6 UNK        -0.1801 
     42 N          31.1256  -47.9953  -55.9922 N.am      6 UNK        -0.4747 
     43 C          32.0098  -48.0100  -56.9963 C.2       6 UNK         0.5012 
     44 O          31.7573  -47.6432  -58.1447 O.2       6 UNK        -0.5003 
     45 CA         33.4273  -48.4772  -56.6239 C.3       5 UNK         0.0782 
     46 C46        34.1800  -47.3697  -55.8298 C.3       11 UNK        -0.0868 
     47 S47        35.3886  -46.4482  -56.8324 S.3       11 UNK        -0.2515 
     48 C48        34.3372  -45.3307  -57.8195 C.3       11 UNK         0.0199 
     49 N          33.3554  -49.7215  -55.8562 N.am      5 UNK        -0.4607 
     50 C          33.4502  -50.9522  -56.3742 C.2       4 UNK         0.5031 
     51 O          33.6173  -51.1775  -57.5730 O.2       4 UNK        -0.5119 
     52 CA         33.3712  -52.1392  -55.3948 C.3       4 UNK         0.0263 
     53 CB         34.7808  -52.6715  -55.0882 C.3       4 UNK        -0.1967 
     54 N          32.7038  -51.8045  -54.1340 N.am      4 UNK        -0.4237 
     55 C          31.3782  -51.6689  -53.9919 C.2       3 UNK         0.4908 
     56 O          30.5680  -51.8916  -54.8915 O.2       3 UNK        -0.5102 
     57 CA         30.8674  -51.1867  -52.6207 C.3       3 UNK         0.0241 
     58 CB         30.4827  -52.3866  -51.7398 C.3       3 UNK        -0.1971 
     59 N          31.8002  -50.3211  -51.8835 N.am      3 UNK        -0.4139 
     60 C          32.2454  -49.1363  -52.3212 C.2       2 UNK         0.5016 
     61 O          32.0032  -48.6851  -53.4428 O.2       2 UNK        -0.5319 
     62 CA         33.1357  -48.3230  -51.3810 C.3       2 UNK         0.0286 
     63 CB         34.6230  -48.6306  -51.6350 C.3       2 UNK        -0.1963 
     64 N          32.8495  -46.9154  -51.6388 N.am      2 UNK        -0.4790 
     65 C          33.1346  -45.8885  -50.8313 C.2       1 UNK         0.5024 
     66 O          33.7640  -46.0018  -49.7783 O.2       1 UNK        -0.4888 
     67 H67        29.0030  -44.4659  -53.0368 H         1 UNK         0.0892 
     68 H68        28.3800  -45.8015  -52.0613 H         1 UNK         0.0892 
     69 H69        28.1498  -44.1344  -51.5324 H         1 UNK         0.0892 
     70 H70        31.2362  -44.2749  -52.8454 H         1 UNK         0.3107 
     71 H71        32.5087  -43.9149  -50.3440 H         1 UNK         0.0773 
     72 H72        34.6138  -43.7283  -51.6715 H         1 UNK         0.0680 
     73 H73        33.7915  -44.3412  -53.0872 H         1 UNK         0.0680 
     74 H74        34.9362  -41.9845  -54.1237 H         1 UNK         0.0650 
     75 H75        33.7343  -40.7661  -54.4675 H         1 UNK         0.0650 
     76 H76        35.0691  -43.7137  -55.7295 H         1 UNK         0.1397 
     77 H77        31.6843  -44.8157  -58.1174 H         1 UNK         0.1363 
     78 H78        31.2817  -41.7990  -55.0988 H         1 UNK         0.1355 
     79 H79        29.7288  -43.4374  -58.0828 H         1 UNK         0.0707 
     80 H80        29.6600  -42.0056  -57.0858 H         1 UNK         0.0707 
     81 H81        27.1020  -42.7886  -57.3450 H         1 UNK         0.1034 
     82 H82        27.3279  -44.4448  -57.8564 H         1 UNK         0.1034 
     83 H83        25.8659  -43.5878  -55.3139 H         1 UNK         0.0482 
     84 H84        24.8272  -45.6062  -58.1616 H         1 UNK         0.3460 
     85 H85        23.4480  -44.5837  -58.5262 H         1 UNK         0.3460 
     86 H86        26.2622  -46.2852  -56.4855 H         1 UNK         0.2989 
     87 H87        26.4093  -47.8779  -54.1476 H         1 UNK         0.0559 
     88 H88        24.7143  -47.6672  -52.3874 H         1 UNK         0.0848 
     89 H89        23.4086  -47.8335  -53.5488 H         1 UNK         0.0848 
     90 H90        24.4877  -49.1909  -53.2285 H         1 UNK         0.0848 
     91 H91        25.9916  -48.8501  -56.0656 H         1 UNK         0.3144 
     92 H92        23.8396  -50.0910  -57.6491 H         1 UNK         0.0727 
     93 H93        23.2497  -49.0236  -59.8398 H         1 UNK         0.0790 
     94 H94        23.4178  -47.4288  -59.1086 H         1 UNK         0.0790 
     95 H95        22.1601  -48.5251  -58.5584 H         1 UNK         0.0790 
     96 H96        25.8699  -50.0985  -58.5215 H         1 UNK         0.3215 
     97 H97        27.8800  -49.6045  -59.0927 H         1 UNK         0.0863 
     98 H98        27.3687  -48.3894  -61.2245 H         1 UNK         0.0808 
     99 H99        28.0171  -46.9030  -60.5461 H         1 UNK         0.0808 
    100 H100       29.0769  -48.2849  -60.8285 H         1 UNK         0.0808 
    101 H101       29.4664  -47.3597  -58.5277 H         1 UNK         0.3118 
    102 H102       29.8993  -46.4130  -56.4979 H         1 UNK         0.0546 
    103 H103       28.3982  -46.6351  -54.5403 H         1 UNK         0.0828 
    104 H104       30.0732  -46.5656  -54.0256 H         1 UNK         0.0828 
    105 H105       29.2225  -48.1075  -54.0331 H         1 UNK         0.0828 
    106 H106       31.4305  -48.3308  -55.0794 H         1 UNK         0.3005 
    107 H107       33.9602  -48.6721  -57.5577 H         1 UNK         0.1257 
    108 H108       34.7604  -47.8184  -55.0226 H         1 UNK         0.0775 
    109 H109       33.5094  -46.6694  -55.3264 H         1 UNK         0.0775 
    110 H110       34.9855  -44.7279  -58.4568 H         1 UNK         0.0840 
    111 H111       33.7292  -45.9287  -58.4985 H         1 UNK         0.0840 
    112 H112       33.1395  -49.6196  -54.8722 H         1 UNK         0.2987 
    113 H113       32.8064  -52.9338  -55.8877 H         1 UNK         0.0785 
    114 H114       35.2965  -52.9607  -56.0052 H         1 UNK         0.0798 
    115 H115       34.7419  -53.5540  -54.4493 H         1 UNK         0.0798 
    116 H116       35.3975  -51.9218  -54.5908 H         1 UNK         0.0798 
    117 H117       33.2942  -51.6214  -53.3359 H         1 UNK         0.3079 
    118 H118       29.9649  -50.6008  -52.8089 H         1 UNK         0.0794 
    119 H119       29.7697  -53.0346  -52.2518 H         1 UNK         0.0786 
    120 H120       30.0124  -52.0635  -50.8108 H         1 UNK         0.0786 
    121 H121       31.3510  -52.9954  -51.4842 H         1 UNK         0.0786 
    122 H122       32.0630  -50.6294  -50.9580 H         1 UNK         0.3032 
    123 H123       32.8760  -48.5576  -50.3461 H         1 UNK         0.1094 
    124 H124       35.2677  -48.0674  -50.9603 H         1 UNK         0.0794 
    125 H125       34.8383  -49.6879  -51.4758 H         1 UNK         0.0794 
    126 H126       34.9166  -48.3862  -52.6561 H         1 UNK         0.0794 
    127 H127       32.3105  -46.7559  -52.4810 H         1 UNK         0.3016 
@<TRIPOS>BOND
     1    1    2 1    
     2    1   67 1    
     3    1   68 1    
     4    1   69 1    
     5    2    3 2    
     6    2    4 am   BACKBONE|DICT|INTERRES
     7    4    5 1    
     8    4   70 1    
     9    5    6 1    
    10    5   65 1    
    11    5   71 1    
    12    6    7 1    
    13    6   72 1    
    14    6   73 1    
    15    7    8 1    
    16    8    9 1    
    17    8   74 1    
    18    8   75 1    
    19    9   10 ar   
    20    9   14 ar   
    21   10   11 ar   
    22   10   76 1    
    23   11   12 ar   
    24   11   48 1    
    25   12   13 ar   
    26   12   77 1    
    27   13   14 ar   
    28   13   15 1    
    29   14   78 1    
    30   15   16 1    
    31   15   79 1    
    32   15   80 1    
    33   16   17 1    
    34   17   18 1    
    35   17   81 1    
    36   17   82 1    
    37   18   19 1    
    38   18   22 1    
    39   18   83 1    
    40   19   20 am   BACKBONE|DICT|INTERRES
    41   19   21 2    
    42   20   84 1    
    43   20   85 1    
    44   22   23 am   BACKBONE|DICT|INTERRES
    45   22   86 1    
    46   23   24 2    
    47   23   25 1    
    48   25   26 1    
    49   25   27 1    
    50   25   87 1    
    51   26   88 1    
    52   26   89 1    
    53   26   90 1    
    54   27   28 am   BACKBONE|DICT|INTERRES
    55   27   91 1    
    56   28   29 2    
    57   28   30 1    
    58   30   31 1    
    59   30   32 1    
    60   30   92 1    
    61   31   93 1    
    62   31   94 1    
    63   31   95 1    
    64   32   33 am   BACKBONE|DICT|INTERRES
    65   32   96 1    
    66   33   34 2    
    67   33   35 1    
    68   35   36 1    
    69   35   37 1    
    70   35   97 1    
    71   36   98 1    
    72   36   99 1    
    73   36  100 1    
    74   37   38 am   BACKBONE|DICT|INTERRES
    75   37  101 1    
    76   38   39 2    
    77   38   40 1    
    78   40   41 1    
    79   40   42 1    
    80   40  102 1    
    81   41  103 1    
    82   41  104 1    
    83   41  105 1    
    84   42   43 am   BACKBONE|DICT|INTERRES
    85   42  106 1    
    86   43   44 2    
    87   43   45 1    
    88   45   46 1    
    89   45   49 1    
    90   45  107 1    
    91   46   47 1    
    92   46  108 1    
    93   46  109 1    
    94   47   48 1    
    95   48  110 1    
    96   48  111 1    
    97   49   50 am   BACKBONE|DICT|INTERRES
    98   49  112 1    
    99   50   51 2    
   100   50   52 1    
   101   52   53 1    
   102   52   54 1    
   103   52  113 1    
   104   53  114 1    
   105   53  115 1    
   106   53  116 1    
   107   54   55 am   BACKBONE|DICT|INTERRES
   108   54  117 1    
   109   55   56 2    
   110   55   57 1    
   111   57   58 1    
   112   57   59 1    
   113   57  118 1    
   114   58  119 1    
   115   58  120 1    
   116   58  121 1    
   117   59   60 am   BACKBONE|DICT|INTERRES
   118   59  122 1    
   119   60   61 2    
   120   60   62 1    
   121   62   63 1    
   122   62   64 1    
   123   62  123 1    
   124   63  124 1    
   125   63  125 1    
   126   63  126 1    
   127   64   65 am   BACKBONE|DICT|INTERRES
   128   64  127 1    
   129   65   66 2    
@<TRIPOS>SUBSTRUCTURE
     1 UNK         1 GROUP             0       ****    0 ROOT    
