@<TRIPOS>MOLECULE
3R134
127   129    1
SMALL
USER_CHARGES


@<TRIPOS>ATOM
      1 CA         26.2316  -46.4020  -50.9097 C.3       0 UNK        -0.1968 
      2 C          27.6793  -45.9374  -50.8841 C.2       0 UNK         0.4852 
      3 O          28.1384  -45.4287  -49.8605 O.2       0 UNK        -0.5359 
      4 N          28.3987  -46.1197  -51.9978 N.am      1 UNK        -0.4300 
      5 CA         29.8432  -45.9071  -52.0956 C.3       1 UNK         0.0863 
      6 C6         30.2520  -45.3951  -53.4986 C.3       11 UNK        -0.0953 
      7 S7         31.9371  -44.6963  -53.5082 S.3       11 UNK        -0.2369 
      8 C8         31.7905  -43.3924  -54.7667 C.3       11 UNK         0.0226 
      9 C9         31.5412  -43.9684  -56.1524 C.ar      11 UNK        -0.0699 
     10 C10        32.5440  -44.6879  -56.8077 C.ar      11 UNK        -0.0804 
     11 C11        32.3193  -45.2317  -58.0773 C.ar      11 UNK        -0.0871 
     12 C12        31.0902  -45.0091  -58.7091 C.ar      11 UNK        -0.1008 
     13 C13        30.0866  -44.2712  -58.0723 C.ar      11 UNK        -0.0735 
     14 C14        30.3124  -43.7733  -56.7856 C.ar      11 UNK        -0.0945 
     15 C15        28.7498  -44.0217  -58.7569 C.3       11 UNK         0.0169 
     16 S16        28.4081  -42.2393  -58.9377 S.3       11 UNK        -0.2669 
     17 C17        26.5821  -42.2115  -58.9205 C.3       11 UNK        -0.0850 
     18 CA         25.9916  -41.5552  -57.6411 C.3       10 UNK         0.0855 
     19 C          24.4451  -41.4156  -57.7703 C.2       10 UNK         0.5543 
     20 N          23.6421  -42.0839  -56.9511 N.am      10 UNK        -0.7343 
     21 O          23.9669  -40.6835  -58.6332 O.2       10 UNK        -0.5027 
     22 N          26.4555  -42.2233  -56.4116 N.am      10 UNK        -0.4495 
     23 C          26.3628  -41.7379  -55.1673 C.2       10 UNK         0.4903 
     24 O          25.8911  -40.6315  -54.9009 O.2       10 UNK        -0.4860 
     25 CA         26.8671  -42.6585  -54.0324 C.3       9 UNK         0.0227 
     26 CB         26.7231  -42.0235  -52.6367 C.3       9 UNK        -0.1964 
     27 N          26.2002  -43.9673  -54.0296 N.am      9 UNK        -0.4231 
     28 C          26.4693  -44.9569  -54.8889 C.2       9 UNK         0.5014 
     29 O          27.3054  -44.8517  -55.7867 O.2       9 UNK        -0.5270 
     30 CA         25.6442  -46.2499  -54.7602 C.3       8 UNK         0.0284 
     31 CB         24.2064  -46.0239  -55.2579 C.3       8 UNK        -0.1977 
     32 N          26.2525  -47.3221  -55.5492 N.am      8 UNK        -0.4342 
     33 C          27.3811  -47.9630  -55.2249 C.2       8 UNK         0.5039 
     34 O          27.9164  -47.9071  -54.1127 O.2       8 UNK        -0.5547 
     35 CA         28.0464  -48.7285  -56.3736 C.3       7 UNK         0.0281 
     36 CB         28.7666  -47.7389  -57.3084 C.3       7 UNK        -0.1963 
     37 N          29.0382  -49.6794  -55.8802 N.am      7 UNK        -0.4444 
     38 C          28.9484  -51.0108  -55.9819 C.2       7 UNK         0.5104 
     39 O          27.9416  -51.6059  -56.3708 O.2       7 UNK        -0.5100 
     40 CA         30.2286  -51.7972  -55.6296 C.3       6 UNK         0.0396 
     41 CB         30.2063  -53.2540  -56.1369 C.3       6 UNK        -0.1801 
     42 N          31.4420  -51.1020  -56.0813 N.am      6 UNK        -0.4747 
     43 C          31.7674  -50.7628  -57.3409 C.2       6 UNK         0.5012 
     44 O          31.1119  -51.0755  -58.3354 O.2       6 UNK        -0.5003 
     45 CA         33.0377  -49.9098  -57.5162 C.3       5 UNK         0.0782 
     46 C46        32.6958  -48.4051  -57.3832 C.3       11 UNK        -0.0868 
     47 S47        34.1358  -47.3362  -57.7186 S.3       11 UNK        -0.2515 
     48 C48        33.4067  -46.0407  -58.7793 C.3       11 UNK         0.0199 
     49 N          34.0919  -50.3223  -56.5846 N.am      5 UNK        -0.4607 
     50 C          34.8046  -51.4520  -56.6929 C.2       4 UNK         0.5031 
     51 O          34.6726  -52.2561  -57.6161 O.2       4 UNK        -0.5119 
     52 CA         35.8521  -51.7341  -55.5999 C.3       4 UNK         0.0263 
     53 CB         37.2547  -51.3355  -56.0875 C.3       4 UNK        -0.1967 
     54 N          35.5699  -51.0476  -54.3362 N.am      4 UNK        -0.4237 
     55 C          34.5811  -51.3777  -53.4946 C.2       3 UNK         0.4908 
     56 O          33.8428  -52.3512  -53.6614 O.2       3 UNK        -0.5102 
     57 CA         34.3807  -50.4782  -52.2567 C.3       3 UNK         0.0241 
     58 CB         35.0657  -49.0950  -52.3658 C.3       3 UNK        -0.1971 
     59 N          32.9630  -50.3114  -51.9146 N.am      3 UNK        -0.4139 
     60 C          31.9976  -49.8094  -52.6990 C.2       2 UNK         0.5016 
     61 O          32.1761  -49.4369  -53.8618 O.2       2 UNK        -0.5319 
     62 CA         30.5794  -49.7053  -52.1026 C.3       2 UNK         0.0286 
     63 CB         30.4496  -50.1961  -50.6419 C.3       2 UNK        -0.1963 
     64 N          30.0498  -48.3465  -52.2444 N.am      2 UNK        -0.4790 
     65 C          30.5702  -47.2168  -51.7338 C.2       1 UNK         0.5024 
     66 O          31.5507  -47.1808  -50.9884 O.2       1 UNK        -0.4888 
     67 H67        26.1089  -47.2781  -51.5461 H         1 UNK         0.0892 
     68 H68        25.5826  -45.6061  -51.2726 H         1 UNK         0.0892 
     69 H69        25.9037  -46.6759  -49.9070 H         1 UNK         0.0892 
     70 H70        27.9947  -46.6209  -52.7868 H         1 UNK         0.3107 
     71 H71        30.1378  -45.1499  -51.3653 H         1 UNK         0.0773 
     72 H72        30.1833  -46.1803  -54.2544 H         1 UNK         0.0680 
     73 H73        29.5590  -44.6150  -53.8157 H         1 UNK         0.0680 
     74 H74        30.9975  -42.6999  -54.4794 H         1 UNK         0.0650 
     75 H75        32.7141  -42.8124  -54.7817 H         1 UNK         0.0650 
     76 H76        33.4951  -44.8417  -56.3166 H         1 UNK         0.1397 
     77 H77        30.9134  -45.4100  -59.6978 H         1 UNK         0.1363 
     78 H78        29.5291  -43.2209  -56.2853 H         1 UNK         0.1355 
     79 H79        27.9645  -44.5001  -58.1750 H         1 UNK         0.0707 
     80 H80        28.7225  -44.4856  -59.7439 H         1 UNK         0.0707 
     81 H81        26.1902  -43.2224  -59.0471 H         1 UNK         0.1034 
     82 H82        26.2639  -41.6597  -59.8074 H         1 UNK         0.1034 
     83 H83        26.3731  -40.5333  -57.5981 H         1 UNK         0.0482 
     84 H84        22.6439  -41.9814  -57.0447 H         1 UNK         0.3460 
     85 H85        24.0263  -42.6733  -56.2318 H         1 UNK         0.3460 
     86 H86        26.8493  -43.1541  -56.5180 H         1 UNK         0.2989 
     87 H87        27.9339  -42.8134  -54.2065 H         1 UNK         0.0559 
     88 H88        25.6793  -41.8355  -52.3825 H         1 UNK         0.0848 
     89 H89        27.2481  -41.0687  -52.5856 H         1 UNK         0.0848 
     90 H90        27.1485  -42.6642  -51.8637 H         1 UNK         0.0848 
     91 H91        25.4588  -44.0913  -53.3554 H         1 UNK         0.3144 
     92 H92        25.6154  -46.5522  -53.7139 H         1 UNK         0.0727 
     93 H93        23.6176  -46.9394  -55.1945 H         1 UNK         0.0790 
     94 H94        24.1850  -45.6840  -56.2945 H         1 UNK         0.0790 
     95 H95        23.6920  -45.2722  -54.6580 H         1 UNK         0.0790 
     96 H96        25.9217  -47.4045  -56.4993 H         1 UNK         0.3215 
     97 H97        27.2689  -49.2459  -56.9399 H         1 UNK         0.0863 
     98 H98        29.2570  -48.2563  -58.1332 H         1 UNK         0.0808 
     99 H99        29.5244  -47.1585  -56.7789 H         1 UNK         0.0808 
    100 H100       28.0674  -47.0261  -57.7468 H         1 UNK         0.0808 
    101 H101       29.8759  -49.2820  -55.4790 H         1 UNK         0.3118 
    102 H102       30.2820  -51.8332  -54.5417 H         1 UNK         0.0546 
    103 H103       29.3772  -53.8081  -55.6955 H         1 UNK         0.0828 
    104 H104       31.1240  -53.7788  -55.8715 H         1 UNK         0.0828 
    105 H105       30.0906  -53.3063  -57.2198 H         1 UNK         0.0828 
    106 H106       32.0244  -50.7277  -55.3364 H         1 UNK         0.3005 
    107 H107       33.3998  -50.0858  -58.5321 H         1 UNK         0.1257 
    108 H108       32.3264  -48.1734  -56.3820 H         1 UNK         0.0775 
    109 H109       31.8916  -48.1397  -58.0724 H         1 UNK         0.0775 
    110 H110       34.1982  -45.3604  -59.0958 H         1 UNK         0.0840 
    111 H111       33.0211  -46.5071  -59.6872 H         1 UNK         0.0840 
    112 H112       34.2561  -49.7119  -55.7977 H         1 UNK         0.2987 
    113 H113       35.8479  -52.8103  -55.4132 H         1 UNK         0.0785 
    114 H114       37.3249  -50.2653  -56.2869 H         1 UNK         0.0798 
    115 H115       37.5084  -51.8558  -57.0123 H         1 UNK         0.0798 
    116 H116       38.0190  -51.5929  -55.3538 H         1 UNK         0.0798 
    117 H117       36.1370  -50.2405  -54.1195 H         1 UNK         0.3079 
    118 H118       34.8364  -51.0102  -51.4205 H         1 UNK         0.0794 
    119 H119       34.7200  -48.5345  -53.2358 H         1 UNK         0.0786 
    120 H120       36.1503  -49.1864  -52.4322 H         1 UNK         0.0786 
    121 H121       34.8569  -48.4870  -51.4852 H         1 UNK         0.0786 
    122 H122       32.7002  -50.6155  -50.9881 H         1 UNK         0.3032 
    123 H123       29.9440  -50.3430  -52.7175 H         1 UNK         0.1094 
    124 H124       29.4198  -50.1103  -50.2945 H         1 UNK         0.0794 
    125 H125       30.7252  -51.2477  -50.5511 H         1 UNK         0.0794 
    126 H126       31.0738  -49.6250  -49.9538 H         1 UNK         0.0794 
    127 H127       29.2602  -48.2517  -52.8813 H         1 UNK         0.3016 
@<TRIPOS>BOND
     1    1    2 1    
     2    1   67 1    
     3    1   68 1    
     4    1   69 1    
     5    2    3 2    
     6    2    4 am   BACKBONE|DICT|INTERRES
     7    4    5 1    
     8    4   70 1    
     9    5    6 1    
    10    5   65 1    
    11    5   71 1    
    12    6    7 1    
    13    6   72 1    
    14    6   73 1    
    15    7    8 1    
    16    8    9 1    
    17    8   74 1    
    18    8   75 1    
    19    9   10 ar   
    20    9   14 ar   
    21   10   11 ar   
    22   10   76 1    
    23   11   12 ar   
    24   11   48 1    
    25   12   13 ar   
    26   12   77 1    
    27   13   14 ar   
    28   13   15 1    
    29   14   78 1    
    30   15   16 1    
    31   15   79 1    
    32   15   80 1    
    33   16   17 1    
    34   17   18 1    
    35   17   81 1    
    36   17   82 1    
    37   18   19 1    
    38   18   22 1    
    39   18   83 1    
    40   19   20 am   BACKBONE|DICT|INTERRES
    41   19   21 2    
    42   20   84 1    
    43   20   85 1    
    44   22   23 am   BACKBONE|DICT|INTERRES
    45   22   86 1    
    46   23   24 2    
    47   23   25 1    
    48   25   26 1    
    49   25   27 1    
    50   25   87 1    
    51   26   88 1    
    52   26   89 1    
    53   26   90 1    
    54   27   28 am   BACKBONE|DICT|INTERRES
    55   27   91 1    
    56   28   29 2    
    57   28   30 1    
    58   30   31 1    
    59   30   32 1    
    60   30   92 1    
    61   31   93 1    
    62   31   94 1    
    63   31   95 1    
    64   32   33 am   BACKBONE|DICT|INTERRES
    65   32   96 1    
    66   33   34 2    
    67   33   35 1    
    68   35   36 1    
    69   35   37 1    
    70   35   97 1    
    71   36   98 1    
    72   36   99 1    
    73   36  100 1    
    74   37   38 am   BACKBONE|DICT|INTERRES
    75   37  101 1    
    76   38   39 2    
    77   38   40 1    
    78   40   41 1    
    79   40   42 1    
    80   40  102 1    
    81   41  103 1    
    82   41  104 1    
    83   41  105 1    
    84   42   43 am   BACKBONE|DICT|INTERRES
    85   42  106 1    
    86   43   44 2    
    87   43   45 1    
    88   45   46 1    
    89   45   49 1    
    90   45  107 1    
    91   46   47 1    
    92   46  108 1    
    93   46  109 1    
    94   47   48 1    
    95   48  110 1    
    96   48  111 1    
    97   49   50 am   BACKBONE|DICT|INTERRES
    98   49  112 1    
    99   50   51 2    
   100   50   52 1    
   101   52   53 1    
   102   52   54 1    
   103   52  113 1    
   104   53  114 1    
   105   53  115 1    
   106   53  116 1    
   107   54   55 am   BACKBONE|DICT|INTERRES
   108   54  117 1    
   109   55   56 2    
   110   55   57 1    
   111   57   58 1    
   112   57   59 1    
   113   57  118 1    
   114   58  119 1    
   115   58  120 1    
   116   58  121 1    
   117   59   60 am   BACKBONE|DICT|INTERRES
   118   59  122 1    
   119   60   61 2    
   120   60   62 1    
   121   62   63 1    
   122   62   64 1    
   123   62  123 1    
   124   63  124 1    
   125   63  125 1    
   126   63  126 1    
   127   64   65 am   BACKBONE|DICT|INTERRES
   128   64  127 1    
   129   65   66 2    
@<TRIPOS>SUBSTRUCTURE
     1 UNK         1 GROUP             0       ****    0 ROOT    
