@<TRIPOS>MOLECULE
3R134
127   129    1
SMALL
USER_CHARGES


@<TRIPOS>ATOM
      1 CA         35.2137  -43.5234  -48.0813 C.3       0 UNK        -0.1968 
      2 C          35.1042  -44.5629  -49.1873 C.2       0 UNK         0.4852 
      3 O          35.6130  -45.6746  -49.0339 O.2       0 UNK        -0.5359 
      4 N          34.4536  -44.2061  -50.3018 N.am      1 UNK        -0.4300 
      5 CA         34.1772  -45.0899  -51.4373 C.3       1 UNK         0.0863 
      6 C6         33.8197  -44.2932  -52.7179 C.3       11 UNK        -0.0953 
      7 S7         32.5561  -42.9854  -52.5045 S.3       11 UNK        -0.2369 
      8 C8         32.9364  -41.8695  -53.8988 C.3       11 UNK         0.0226 
      9 C9         32.4757  -42.4612  -55.2232 C.ar      11 UNK        -0.0699 
     10 C10        33.2669  -43.4103  -55.8728 C.ar      11 UNK        -0.0804 
     11 C11        32.7970  -44.0646  -57.0132 C.ar      11 UNK        -0.0871 
     12 C12        31.5752  -43.6811  -57.5710 C.ar      11 UNK        -0.1008 
     13 C13        30.7885  -42.6999  -56.9573 C.ar      11 UNK        -0.0735 
     14 C14        31.2418  -42.1007  -55.7759 C.ar      11 UNK        -0.0945 
     15 C15        29.4470  -42.2912  -57.5576 C.3       11 UNK         0.0169 
     16 S16        28.4060  -43.7235  -57.9948 S.3       11 UNK        -0.2669 
     17 C17        26.8422  -42.9025  -58.4557 C.3       11 UNK        -0.0850 
     18 CA         25.7161  -43.1954  -57.4328 C.3       10 UNK         0.0855 
     19 C          24.4478  -42.3591  -57.7523 C.2       10 UNK         0.5543 
     20 N          24.3360  -41.1648  -57.1875 N.am      10 UNK        -0.7343 
     21 O          23.5910  -42.7612  -58.5377 O.2       10 UNK        -0.5027 
     22 N          25.4325  -44.6340  -57.3637 N.am      10 UNK        -0.4495 
     23 C          24.7200  -45.2477  -56.4161 C.2       10 UNK         0.4903 
     24 O          24.2441  -44.6671  -55.4396 O.2       10 UNK        -0.4860 
     25 CA         24.5089  -46.7686  -56.5502 C.3       9 UNK         0.0227 
     26 CB         23.1451  -47.0792  -57.1972 C.3       9 UNK        -0.1964 
     27 N          25.5968  -47.5112  -57.2098 N.am      9 UNK        -0.4231 
     28 C          25.9957  -47.4753  -58.4924 C.2       9 UNK         0.5014 
     29 O          25.5056  -46.7207  -59.3334 O.2       9 UNK        -0.5270 
     30 CA         27.1483  -48.4054  -58.9274 C.3       8 UNK         0.0284 
     31 CB         28.4050  -47.5802  -59.2544 C.3       8 UNK        -0.1977 
     32 N          27.4966  -49.4401  -57.9495 N.am      8 UNK        -0.4342 
     33 C          26.7254  -50.4842  -57.6139 C.2       8 UNK         0.5039 
     34 O          25.6565  -50.7506  -58.1638 O.2       8 UNK        -0.5547 
     35 CA         27.2023  -51.3500  -56.4321 C.3       7 UNK         0.0281 
     36 CB         28.0633  -52.5208  -56.9305 C.3       7 UNK        -0.1963 
     37 N          27.9423  -50.5932  -55.4149 N.am      7 UNK        -0.4444 
     38 C          27.4447  -49.5702  -54.7030 C.2       7 UNK         0.5104 
     39 O          26.2865  -49.1665  -54.8008 O.2       7 UNK        -0.5100 
     40 CA         28.4211  -48.8325  -53.7751 C.3       6 UNK         0.0396 
     41 CB         28.5994  -49.5831  -52.4456 C.3       6 UNK        -0.1801 
     42 N          29.7147  -48.6241  -54.4313 N.am      6 UNK        -0.4747 
     43 C          29.9275  -47.6945  -55.3771 C.2       6 UNK         0.5012 
     44 O          29.0833  -46.8634  -55.7078 O.2       6 UNK        -0.5003 
     45 CA         31.2909  -47.7077  -56.0994 C.3       5 UNK         0.0782 
     46 C46        32.2621  -46.7058  -55.4425 C.3       11 UNK        -0.0868 
     47 S47        33.8591  -46.5605  -56.3299 S.3       11 UNK        -0.2515 
     48 C48        33.5570  -45.2554  -57.5797 C.3       11 UNK         0.0199 
     49 N          31.8596  -49.0547  -56.1693 N.am      5 UNK        -0.4607 
     50 C          31.3964  -50.0235  -56.9685 C.2       4 UNK         0.5031 
     51 O          30.4504  -49.8731  -57.7406 O.2       4 UNK        -0.5119 
     52 CA         32.0641  -51.4051  -56.8481 C.3       4 UNK         0.0263 
     53 CB         33.2628  -51.5059  -57.8039 C.3       4 UNK        -0.1967 
     54 N          32.4970  -51.7241  -55.4835 N.am      4 UNK        -0.4237 
     55 C          31.6858  -51.7779  -54.4180 C.2       3 UNK         0.4908 
     56 O          30.4687  -51.6013  -54.4831 O.2       3 UNK        -0.5102 
     57 CA         32.3247  -52.0179  -53.0394 C.3       3 UNK         0.0241 
     58 CB         33.7914  -52.5055  -53.0941 C.3       3 UNK        -0.1971 
     59 N          32.2012  -50.8323  -52.1802 N.am      3 UNK        -0.4139 
     60 C          32.6961  -49.6068  -52.4149 C.2       2 UNK         0.5016 
     61 O          33.3162  -49.3012  -53.4375 O.2       2 UNK        -0.5319 
     62 CA         32.4582  -48.5453  -51.3265 C.3       2 UNK         0.0286 
     63 CB         32.7661  -49.0826  -49.9103 C.3       2 UNK        -0.1963 
     64 N          33.2842  -47.3702  -51.6064 N.am      2 UNK        -0.4790 
     65 C          33.1135  -46.1513  -51.0789 C.2       1 UNK         0.5024 
     66 O          32.1748  -45.8562  -50.3345 O.2       1 UNK        -0.4888 
     67 H67        34.7332  -42.5842  -48.3551 H         1 UNK         0.0892 
     68 H68        36.2609  -43.3170  -47.8623 H         1 UNK         0.0892 
     69 H69        34.7411  -43.8931  -47.1716 H         1 UNK         0.0892 
     70 H70        34.0237  -43.2938  -50.3615 H         1 UNK         0.3107 
     71 H71        35.1027  -45.6307  -51.6490 H         1 UNK         0.0773 
     72 H72        33.4959  -44.9692  -53.5091 H         1 UNK         0.0680 
     73 H73        34.7300  -43.8202  -53.0890 H         1 UNK         0.0680 
     74 H74        32.4423  -40.9125  -53.7250 H         1 UNK         0.0650 
     75 H75        34.0064  -41.6587  -53.9278 H         1 UNK         0.0650 
     76 H76        34.2152  -43.7047  -55.4462 H         1 UNK         0.1397 
     77 H77        31.2128  -44.1752  -58.4621 H         1 UNK         0.1363 
     78 H78        30.6287  -41.3630  -55.2765 H         1 UNK         0.1355 
     79 H79        28.8954  -41.6597  -56.8590 H         1 UNK         0.0707 
     80 H80        29.6269  -41.6911  -58.4506 H         1 UNK         0.0707 
     81 H81        26.5525  -43.2449  -59.4512 H         1 UNK         0.1034 
     82 H82        27.0112  -41.8277  -58.5466 H         1 UNK         0.1034 
     83 H83        26.0724  -42.8918  -56.4460 H         1 UNK         0.0482 
     84 H84        25.0360  -40.8218  -56.5480 H         1 UNK         0.3460 
     85 H85        23.5277  -40.5987  -57.3945 H         1 UNK         0.3460 
     86 H86        25.7147  -45.1890  -58.1645 H         1 UNK         0.2989 
     87 H87        24.4784  -47.1595  -55.5321 H         1 UNK         0.0559 
     88 H88        22.9568  -48.1523  -57.2302 H         1 UNK         0.0848 
     89 H89        23.0790  -46.6942  -58.2152 H         1 UNK         0.0848 
     90 H90        22.3331  -46.6245  -56.6283 H         1 UNK         0.0848 
     91 H91        26.0875  -48.1466  -56.5894 H         1 UNK         0.3144 
     92 H92        26.8252  -48.9084  -59.8411 H         1 UNK         0.0727 
     93 H93        29.2130  -48.2123  -59.6230 H         1 UNK         0.0790 
     94 H94        28.7708  -47.0396  -58.3813 H         1 UNK         0.0790 
     95 H95        28.1970  -46.8392  -60.0276 H         1 UNK         0.0790 
     96 H96        28.4102  -49.3657  -57.5155 H         1 UNK         0.3215 
     97 H97        26.3138  -51.7609  -55.9480 H         1 UNK         0.0863 
     98 H98        28.3919  -53.1544  -56.1063 H         1 UNK         0.0808 
     99 H99        28.9490  -52.1716  -57.4605 H         1 UNK         0.0808 
    100 H100       27.5001  -53.1505  -57.6205 H         1 UNK         0.0808 
    101 H101       28.8956  -50.8931  -55.2214 H         1 UNK         0.3118 
    102 H102       27.9871  -47.8570  -53.5446 H         1 UNK         0.0546 
    103 H103       27.6347  -49.7455  -51.9631 H         1 UNK         0.0828 
    104 H104       29.2106  -49.0134  -51.7476 H         1 UNK         0.0828 
    105 H105       29.0593  -50.5616  -52.5792 H         1 UNK         0.0828 
    106 H106       30.4275  -49.3233  -54.2722 H         1 UNK         0.3005 
    107 H107       31.1043  -47.3679  -57.1211 H         1 UNK         0.1257 
    108 H108       32.4831  -47.0173  -54.4216 H         1 UNK         0.0775 
    109 H109       31.7896  -45.7290  -55.3404 H         1 UNK         0.0775 
    110 H110       34.5130  -44.9157  -57.9800 H         1 UNK         0.0840 
    111 H111       33.0128  -45.6986  -58.4151 H         1 UNK         0.0840 
    112 H112       32.6230  -49.2517  -55.5321 H         1 UNK         0.2987 
    113 H113       31.3278  -52.1548  -57.1430 H         1 UNK         0.0785 
    114 H114       34.0486  -50.7954  -57.5434 H         1 UNK         0.0798 
    115 H115       32.9605  -51.2951  -58.8308 H         1 UNK         0.0798 
    116 H116       33.6960  -52.5062  -57.7947 H         1 UNK         0.0798 
    117 H117       33.4877  -51.8513  -55.3354 H         1 UNK         0.3079 
    118 H118       31.7346  -52.8062  -52.5694 H         1 UNK         0.0794 
    119 H119       34.4661  -51.7590  -53.5145 H         1 UNK         0.0786 
    120 H120       33.8838  -53.4139  -53.6911 H         1 UNK         0.0786 
    121 H121       34.1563  -52.7458  -52.0953 H         1 UNK         0.0786 
    122 H122       31.6845  -50.9775  -51.3243 H         1 UNK         0.3032 
    123 H123       31.4095  -48.2484  -51.3820 H         1 UNK         0.1094 
    124 H124       33.7906  -49.4497  -49.8360 H         1 UNK         0.0794 
    125 H125       32.6371  -48.3118  -49.1504 H         1 UNK         0.0794 
    126 H126       32.1012  -49.9012  -49.6342 H         1 UNK         0.0794 
    127 H127       34.0267  -47.5403  -52.2747 H         1 UNK         0.3016 
@<TRIPOS>BOND
     1    1    2 1    
     2    1   67 1    
     3    1   68 1    
     4    1   69 1    
     5    2    3 2    
     6    2    4 am   BACKBONE|DICT|INTERRES
     7    4    5 1    
     8    4   70 1    
     9    5    6 1    
    10    5   65 1    
    11    5   71 1    
    12    6    7 1    
    13    6   72 1    
    14    6   73 1    
    15    7    8 1    
    16    8    9 1    
    17    8   74 1    
    18    8   75 1    
    19    9   10 ar   
    20    9   14 ar   
    21   10   11 ar   
    22   10   76 1    
    23   11   12 ar   
    24   11   48 1    
    25   12   13 ar   
    26   12   77 1    
    27   13   14 ar   
    28   13   15 1    
    29   14   78 1    
    30   15   16 1    
    31   15   79 1    
    32   15   80 1    
    33   16   17 1    
    34   17   18 1    
    35   17   81 1    
    36   17   82 1    
    37   18   19 1    
    38   18   22 1    
    39   18   83 1    
    40   19   20 am   BACKBONE|DICT|INTERRES
    41   19   21 2    
    42   20   84 1    
    43   20   85 1    
    44   22   23 am   BACKBONE|DICT|INTERRES
    45   22   86 1    
    46   23   24 2    
    47   23   25 1    
    48   25   26 1    
    49   25   27 1    
    50   25   87 1    
    51   26   88 1    
    52   26   89 1    
    53   26   90 1    
    54   27   28 am   BACKBONE|DICT|INTERRES
    55   27   91 1    
    56   28   29 2    
    57   28   30 1    
    58   30   31 1    
    59   30   32 1    
    60   30   92 1    
    61   31   93 1    
    62   31   94 1    
    63   31   95 1    
    64   32   33 am   BACKBONE|DICT|INTERRES
    65   32   96 1    
    66   33   34 2    
    67   33   35 1    
    68   35   36 1    
    69   35   37 1    
    70   35   97 1    
    71   36   98 1    
    72   36   99 1    
    73   36  100 1    
    74   37   38 am   BACKBONE|DICT|INTERRES
    75   37  101 1    
    76   38   39 2    
    77   38   40 1    
    78   40   41 1    
    79   40   42 1    
    80   40  102 1    
    81   41  103 1    
    82   41  104 1    
    83   41  105 1    
    84   42   43 am   BACKBONE|DICT|INTERRES
    85   42  106 1    
    86   43   44 2    
    87   43   45 1    
    88   45   46 1    
    89   45   49 1    
    90   45  107 1    
    91   46   47 1    
    92   46  108 1    
    93   46  109 1    
    94   47   48 1    
    95   48  110 1    
    96   48  111 1    
    97   49   50 am   BACKBONE|DICT|INTERRES
    98   49  112 1    
    99   50   51 2    
   100   50   52 1    
   101   52   53 1    
   102   52   54 1    
   103   52  113 1    
   104   53  114 1    
   105   53  115 1    
   106   53  116 1    
   107   54   55 am   BACKBONE|DICT|INTERRES
   108   54  117 1    
   109   55   56 2    
   110   55   57 1    
   111   57   58 1    
   112   57   59 1    
   113   57  118 1    
   114   58  119 1    
   115   58  120 1    
   116   58  121 1    
   117   59   60 am   BACKBONE|DICT|INTERRES
   118   59  122 1    
   119   60   61 2    
   120   60   62 1    
   121   62   63 1    
   122   62   64 1    
   123   62  123 1    
   124   63  124 1    
   125   63  125 1    
   126   63  126 1    
   127   64   65 am   BACKBONE|DICT|INTERRES
   128   64  127 1    
   129   65   66 2    
@<TRIPOS>SUBSTRUCTURE
     1 UNK         1 GROUP             0       ****    0 ROOT    
