@<TRIPOS>MOLECULE
3R134
127   129    1
SMALL
USER_CHARGES


@<TRIPOS>ATOM
      1 CA         36.8926  -46.9180  -48.0158 C.3       0 UNK        -0.1968 
      2 C          36.2004  -46.5687  -49.3251 C.2       0 UNK         0.4852 
      3 O          36.6703  -46.9704  -50.3903 O.2       0 UNK        -0.5359 
      4 N          35.0863  -45.8263  -49.2538 N.am      1 UNK        -0.4300 
      5 CA         34.2845  -45.4032  -50.4100 C.3       1 UNK         0.0863 
      6 C6         33.3757  -44.1946  -50.0497 C.3       11 UNK        -0.0953 
      7 S7         33.0433  -43.1028  -51.4750 S.3       11 UNK        -0.2369 
      8 C8         31.3676  -43.6395  -51.9696 C.3       11 UNK         0.0226 
      9 C9         31.1222  -43.5945  -53.4781 C.ar      11 UNK        -0.0699 
     10 C10        32.1264  -43.9350  -54.3933 C.ar      11 UNK        -0.0804 
     11 C11        31.8763  -43.9124  -55.7675 C.ar      11 UNK        -0.0871 
     12 C12        30.6075  -43.5606  -56.2274 C.ar      11 UNK        -0.1008 
     13 C13        29.5727  -43.2744  -55.3321 C.ar      11 UNK        -0.0735 
     14 C14        29.8460  -43.2802  -53.9590 C.ar      11 UNK        -0.0945 
     15 C15        28.1390  -43.0406  -55.8078 C.3       11 UNK         0.0169 
     16 S16        27.9678  -42.0597  -57.3408 S.3       11 UNK        -0.2669 
     17 C17        28.0462  -43.3128  -58.6736 C.3       11 UNK        -0.0850 
     18 CA         26.6591  -43.8995  -59.0373 C.3       10 UNK         0.0855 
     19 C          26.7056  -44.6265  -60.4047 C.2       10 UNK         0.5543 
     20 N          26.0852  -44.0628  -61.4316 N.am      10 UNK        -0.7343 
     21 O          27.3358  -45.6718  -60.5512 O.2       10 UNK        -0.5027 
     22 N          26.2085  -44.8375  -58.0064 N.am      10 UNK        -0.4495 
     23 C          24.9437  -44.9902  -57.6030 C.2       10 UNK         0.4903 
     24 O          24.0033  -44.3046  -58.0088 O.2       10 UNK        -0.4860 
     25 CA         24.7038  -46.1039  -56.5665 C.3       9 UNK         0.0227 
     26 CB         23.2129  -46.3112  -56.2246 C.3       9 UNK        -0.1964 
     27 N          25.3378  -47.3697  -56.9524 N.am      9 UNK        -0.4231 
     28 C          25.0913  -48.1074  -58.0476 C.2       9 UNK         0.5014 
     29 O          24.2264  -47.8307  -58.8802 O.2       9 UNK        -0.5270 
     30 CA         25.9534  -49.3655  -58.2776 C.3       8 UNK         0.0284 
     31 CB         26.8676  -49.1642  -59.4980 C.3       8 UNK        -0.1977 
     32 N          26.7785  -49.7458  -57.1279 N.am      8 UNK        -0.4342 
     33 C          26.3239  -50.2949  -55.9935 C.2       8 UNK         0.5039 
     34 O          25.1507  -50.6219  -55.8124 O.2       8 UNK        -0.5547 
     35 CA         27.3425  -50.4610  -54.8500 C.3       7 UNK         0.0281 
     36 CB         28.1213  -51.7773  -54.9975 C.3       7 UNK        -0.1963 
     37 N          28.2810  -49.3369  -54.7498 N.am      7 UNK        -0.4444 
     38 C          27.9260  -48.0690  -54.4901 C.2       7 UNK         0.5104 
     39 O          26.7686  -47.7078  -54.2814 O.2       7 UNK        -0.5100 
     40 CA         29.0424  -47.0182  -54.5218 C.3       6 UNK         0.0396 
     41 CB         29.8381  -47.0314  -53.2107 C.3       6 UNK        -0.1801 
     42 N          29.9411  -47.2330  -55.6550 N.am      6 UNK        -0.4747 
     43 C          29.6204  -46.9678  -56.9295 C.2       6 UNK         0.5012 
     44 O          28.5464  -46.4672  -57.2690 O.2       6 UNK        -0.5003 
     45 CA         30.6416  -47.3836  -58.0110 C.3       5 UNK         0.0782 
     46 C46        31.6538  -46.2564  -58.3446 C.3       11 UNK        -0.0868 
     47 S47        32.9993  -46.0597  -57.1170 S.3       11 UNK        -0.2515 
     48 C48        32.9732  -44.2746  -56.7566 C.3       11 UNK         0.0199 
     49 N          31.3187  -48.6463  -57.6960 N.am      5 UNK        -0.4607 
     50 C          30.7201  -49.8397  -57.6014 C.2       4 UNK         0.5031 
     51 O          29.5251  -50.0199  -57.8246 O.2       4 UNK        -0.5119 
     52 CA         31.5866  -51.0239  -57.1342 C.3       4 UNK         0.0263 
     53 CB         32.2392  -51.7169  -58.3404 C.3       4 UNK        -0.1967 
     54 N          32.6207  -50.6641  -56.1554 N.am      4 UNK        -0.4237 
     55 C          32.3894  -50.0771  -54.9722 C.2       3 UNK         0.4908 
     56 O          31.2601  -49.7673  -54.5817 O.2       3 UNK        -0.5102 
     57 CA         33.6283  -49.7634  -54.1126 C.3       3 UNK         0.0241 
     58 CB         34.6049  -48.8299  -54.8507 C.3       3 UNK        -0.1971 
     59 N          33.2419  -49.1086  -52.8657 N.am      3 UNK        -0.4139 
     60 C          32.9302  -49.7079  -51.7147 C.2       2 UNK         0.5016 
     61 O          33.0548  -50.9197  -51.5236 O.2       2 UNK        -0.5319 
     62 CA         32.3814  -48.7940  -50.5931 C.3       2 UNK         0.0286 
     63 CB         32.0878  -49.5690  -49.2944 C.3       2 UNK        -0.1963 
     64 N          33.2286  -47.6386  -50.2628 N.am      2 UNK        -0.4790 
     65 C          33.4670  -46.5614  -51.0290 C.2       1 UNK         0.5024 
     66 O          33.0580  -46.4537  -52.1842 O.2       1 UNK        -0.4888 
     67 H67        36.3733  -46.4992  -47.1540 H         1 UNK         0.0892 
     68 H68        36.9373  -47.9997  -47.8919 H         1 UNK         0.0892 
     69 H69        37.9120  -46.5329  -48.0165 H         1 UNK         0.0892 
     70 H70        34.7519  -45.5209  -48.3503 H         1 UNK         0.3107 
     71 H71        34.9911  -45.0786  -51.1775 H         1 UNK         0.0773 
     72 H72        32.4420  -44.5108  -49.5799 H         1 UNK         0.0680 
     73 H73        33.8731  -43.5658  -49.3094 H         1 UNK         0.0680 
     74 H74        30.6464  -43.0076  -51.4494 H         1 UNK         0.0650 
     75 H75        31.1830  -44.6568  -51.6268 H         1 UNK         0.0650 
     76 H76        33.1039  -44.2298  -54.0374 H         1 UNK         0.1397 
     77 H77        30.4311  -43.5371  -57.2887 H         1 UNK         0.1363 
     78 H78        29.0521  -43.0666  -53.2564 H         1 UNK         0.1355 
     79 H79        27.6537  -44.0083  -55.9268 H         1 UNK         0.0707 
     80 H80        27.5788  -42.5184  -55.0309 H         1 UNK         0.0707 
     81 H81        28.4852  -42.8141  -59.5401 H         1 UNK         0.1034 
     82 H82        28.7325  -44.1180  -58.4179 H         1 UNK         0.1034 
     83 H83        25.9524  -43.0700  -59.1111 H         1 UNK         0.0482 
     84 H84        26.1192  -44.5147  -62.3321 H         1 UNK         0.3460 
     85 H85        25.5725  -43.2013  -61.3223 H         1 UNK         0.3460 
     86 H86        26.9172  -45.4881  -57.6770 H         1 UNK         0.2989 
     87 H87        25.2059  -45.7809  -55.6533 H         1 UNK         0.0559 
     88 H88        22.6292  -46.5945  -57.1009 H         1 UNK         0.0848 
     89 H89        22.7741  -45.3961  -55.8255 H         1 UNK         0.0848 
     90 H90        23.0843  -47.0875  -55.4703 H         1 UNK         0.0848 
     91 H91        26.0589  -47.6936  -56.3187 H         1 UNK         0.3144 
     92 H92        25.2713  -50.1903  -58.4936 H         1 UNK         0.0727 
     93 H93        27.5765  -48.3508  -59.3368 H         1 UNK         0.0790 
     94 H94        26.2878  -48.9161  -60.3881 H         1 UNK         0.0790 
     95 H95        27.4363  -50.0665  -59.7233 H         1 UNK         0.0790 
     96 H96        27.7823  -49.6080  -57.2283 H         1 UNK         0.3215 
     97 H97        26.7825  -50.5006  -53.9132 H         1 UNK         0.0863 
     98 H98        28.8448  -51.9062  -54.1921 H         1 UNK         0.0808 
     99 H99        28.6589  -51.8242  -55.9440 H         1 UNK         0.0808 
    100 H100       27.4449  -52.6324  -54.9676 H         1 UNK         0.0808 
    101 H101       29.2689  -49.5394  -54.8754 H         1 UNK         0.3118 
    102 H102       28.5852  -46.0328  -54.6297 H         1 UNK         0.0546 
    103 H103       29.2160  -46.7125  -52.3739 H         1 UNK         0.0828 
    104 H104       30.6871  -46.3539  -53.2655 H         1 UNK         0.0828 
    105 H105       30.2201  -48.0235  -52.9746 H         1 UNK         0.0828 
    106 H106       30.8183  -47.6964  -55.4598 H         1 UNK         0.3005 
    107 H107       30.0515  -47.5613  -58.9136 H         1 UNK         0.1257 
    108 H108       31.1386  -45.3100  -58.5074 H         1 UNK         0.0775 
    109 H109       32.1304  -46.4841  -59.2992 H         1 UNK         0.0775 
    110 H110       33.9431  -43.9888  -56.3467 H         1 UNK         0.0840 
    111 H111       32.8612  -43.7093  -57.6832 H         1 UNK         0.0840 
    112 H112       32.3032  -48.5755  -57.4838 H         1 UNK         0.2987 
    113 H113       30.9222  -51.7420  -56.6507 H         1 UNK         0.0785 
    114 H114       31.4871  -52.0140  -59.0730 H         1 UNK         0.0798 
    115 H115       32.7699  -52.6209  -58.0409 H         1 UNK         0.0798 
    116 H116       32.9483  -51.0623  -58.8489 H         1 UNK         0.0798 
    117 H117       33.5728  -50.8911  -56.4044 H         1 UNK         0.3079 
    118 H118       34.1348  -50.7051  -53.8913 H         1 UNK         0.0794 
    119 H119       34.1399  -47.8736  -55.0908 H         1 UNK         0.0786 
    120 H120       34.9636  -49.2669  -55.7829 H         1 UNK         0.0786 
    121 H121       35.4836  -48.6218  -54.2396 H         1 UNK         0.0786 
    122 H122       33.1095  -48.0999  -52.9032 H         1 UNK         0.3032 
    123 H123       31.4288  -48.4055  -50.9578 H         1 UNK         0.1094 
    124 H124       32.9973  -49.9855  -48.8597 H         1 UNK         0.0794 
    125 H125       31.6185  -48.9298  -48.5462 H         1 UNK         0.0794 
    126 H126       31.4039  -50.3989  -49.4783 H         1 UNK         0.0794 
    127 H127       33.6451  -47.6487  -49.3434 H         1 UNK         0.3016 
@<TRIPOS>BOND
     1    1    2 1    
     2    1   67 1    
     3    1   68 1    
     4    1   69 1    
     5    2    3 2    
     6    2    4 am   BACKBONE|DICT|INTERRES
     7    4    5 1    
     8    4   70 1    
     9    5    6 1    
    10    5   65 1    
    11    5   71 1    
    12    6    7 1    
    13    6   72 1    
    14    6   73 1    
    15    7    8 1    
    16    8    9 1    
    17    8   74 1    
    18    8   75 1    
    19    9   10 ar   
    20    9   14 ar   
    21   10   11 ar   
    22   10   76 1    
    23   11   12 ar   
    24   11   48 1    
    25   12   13 ar   
    26   12   77 1    
    27   13   14 ar   
    28   13   15 1    
    29   14   78 1    
    30   15   16 1    
    31   15   79 1    
    32   15   80 1    
    33   16   17 1    
    34   17   18 1    
    35   17   81 1    
    36   17   82 1    
    37   18   19 1    
    38   18   22 1    
    39   18   83 1    
    40   19   20 am   BACKBONE|DICT|INTERRES
    41   19   21 2    
    42   20   84 1    
    43   20   85 1    
    44   22   23 am   BACKBONE|DICT|INTERRES
    45   22   86 1    
    46   23   24 2    
    47   23   25 1    
    48   25   26 1    
    49   25   27 1    
    50   25   87 1    
    51   26   88 1    
    52   26   89 1    
    53   26   90 1    
    54   27   28 am   BACKBONE|DICT|INTERRES
    55   27   91 1    
    56   28   29 2    
    57   28   30 1    
    58   30   31 1    
    59   30   32 1    
    60   30   92 1    
    61   31   93 1    
    62   31   94 1    
    63   31   95 1    
    64   32   33 am   BACKBONE|DICT|INTERRES
    65   32   96 1    
    66   33   34 2    
    67   33   35 1    
    68   35   36 1    
    69   35   37 1    
    70   35   97 1    
    71   36   98 1    
    72   36   99 1    
    73   36  100 1    
    74   37   38 am   BACKBONE|DICT|INTERRES
    75   37  101 1    
    76   38   39 2    
    77   38   40 1    
    78   40   41 1    
    79   40   42 1    
    80   40  102 1    
    81   41  103 1    
    82   41  104 1    
    83   41  105 1    
    84   42   43 am   BACKBONE|DICT|INTERRES
    85   42  106 1    
    86   43   44 2    
    87   43   45 1    
    88   45   46 1    
    89   45   49 1    
    90   45  107 1    
    91   46   47 1    
    92   46  108 1    
    93   46  109 1    
    94   47   48 1    
    95   48  110 1    
    96   48  111 1    
    97   49   50 am   BACKBONE|DICT|INTERRES
    98   49  112 1    
    99   50   51 2    
   100   50   52 1    
   101   52   53 1    
   102   52   54 1    
   103   52  113 1    
   104   53  114 1    
   105   53  115 1    
   106   53  116 1    
   107   54   55 am   BACKBONE|DICT|INTERRES
   108   54  117 1    
   109   55   56 2    
   110   55   57 1    
   111   57   58 1    
   112   57   59 1    
   113   57  118 1    
   114   58  119 1    
   115   58  120 1    
   116   58  121 1    
   117   59   60 am   BACKBONE|DICT|INTERRES
   118   59  122 1    
   119   60   61 2    
   120   60   62 1    
   121   62   63 1    
   122   62   64 1    
   123   62  123 1    
   124   63  124 1    
   125   63  125 1    
   126   63  126 1    
   127   64   65 am   BACKBONE|DICT|INTERRES
   128   64  127 1    
   129   65   66 2    
@<TRIPOS>SUBSTRUCTURE
     1 UNK         1 GROUP             0       ****    0 ROOT    
