@<TRIPOS>MOLECULE
3R134
127   129    1
SMALL
USER_CHARGES


@<TRIPOS>ATOM
      1 CA         32.8042  -46.8583  -57.8377 C.3       0 UNK        -0.1968 
      2 C          32.8386  -46.5975  -56.3408 C.2       0 UNK         0.4852 
      3 O          32.8224  -47.5529  -55.5623 O.2       0 UNK        -0.5359 
      4 N          32.8867  -45.3196  -55.9349 N.am      1 UNK        -0.4300 
      5 CA         32.9281  -44.8650  -54.5400 C.3       1 UNK         0.0863 
      6 C6         32.8954  -43.3143  -54.4578 C.3       11 UNK        -0.0953 
      7 S7         32.9323  -42.6393  -52.7569 S.3       11 UNK        -0.2369 
      8 C8         31.1664  -42.3854  -52.3960 C.3       11 UNK         0.0226 
      9 C9         30.3879  -43.6899  -52.4596 C.ar      11 UNK        -0.0699 
     10 C10        30.5785  -44.6749  -51.4844 C.ar      11 UNK        -0.0804 
     11 C11        29.8960  -45.8929  -51.5653 C.ar      11 UNK        -0.0871 
     12 C12        28.9943  -46.1034  -52.6112 C.ar      11 UNK        -0.1008 
     13 C13        28.8387  -45.1496  -53.6187 C.ar      11 UNK        -0.0735 
     14 C14        29.5161  -43.9322  -53.5248 C.ar      11 UNK        -0.0945 
     15 C15        27.9995  -45.4735  -54.8417 C.3       11 UNK         0.0169 
     16 S16        29.0742  -45.9923  -56.2163 S.3       11 UNK        -0.2669 
     17 C17        29.2867  -44.4306  -57.1441 C.3       11 UNK        -0.0850 
     18 CA         28.7017  -44.4990  -58.5805 C.3       10 UNK         0.0855 
     19 C          29.6631  -45.2231  -59.5691 C.2       10 UNK         0.5543 
     20 N          29.2630  -46.3119  -60.2144 N.am      10 UNK        -0.7343 
     21 O          30.7908  -44.7762  -59.7614 O.2       10 UNK        -0.5027 
     22 N          27.3209  -45.0059  -58.5656 N.am      10 UNK        -0.4495 
     23 C          26.3991  -44.8028  -59.5131 C.2       10 UNK         0.4903 
     24 O          26.5812  -44.1079  -60.5128 O.2       10 UNK        -0.4860 
     25 CA         25.0434  -45.5013  -59.3174 C.3       9 UNK         0.0227 
     26 CB         24.9997  -46.8120  -60.1205 C.3       9 UNK        -0.1964 
     27 N          24.7528  -45.7889  -57.9084 N.am      9 UNK        -0.4231 
     28 C          24.2355  -44.8980  -57.0462 C.2       9 UNK         0.5014 
     29 O          23.9620  -43.7385  -57.3599 O.2       9 UNK        -0.5270 
     30 CA         23.9578  -45.3675  -55.6041 C.3       8 UNK         0.0284 
     31 CB         22.6334  -44.8065  -55.0520 C.3       8 UNK        -0.1977 
     32 N          23.9375  -46.8270  -55.5179 N.am      8 UNK        -0.4342 
     33 C          24.5450  -47.5606  -54.5800 C.2       8 UNK         0.5039 
     34 O          25.0896  -47.0934  -53.5794 O.2       8 UNK        -0.5547 
     35 CA         24.5889  -49.0810  -54.8144 C.3       7 UNK         0.0281 
     36 CB         23.4606  -49.6083  -55.7308 C.3       7 UNK        -0.1963 
     37 N          25.9003  -49.5044  -55.3190 N.am      7 UNK        -0.4444 
     38 C          26.5364  -49.0779  -56.4193 C.2       7 UNK         0.5104 
     39 O          26.0939  -48.2125  -57.1796 O.2       7 UNK        -0.5100 
     40 CA         27.9016  -49.7351  -56.7087 C.3       6 UNK         0.0396 
     41 CB         28.4029  -49.4278  -58.1318 C.3       6 UNK        -0.1801 
     42 N          28.9373  -49.3305  -55.7562 N.am      6 UNK        -0.4747 
     43 C          29.0155  -49.6817  -54.4654 C.2       6 UNK         0.5012 
     44 O          28.2063  -50.4298  -53.9117 O.2       6 UNK        -0.5003 
     45 CA         30.2280  -49.1184  -53.6933 C.3       5 UNK         0.0782 
     46 C46        30.1340  -49.3412  -52.1581 C.3       11 UNK        -0.0868 
     47 S47        31.2813  -48.2720  -51.2220 S.3       11 UNK        -0.2515 
     48 C48        30.1604  -46.9949  -50.5489 C.3       11 UNK         0.0199 
     49 N          31.4817  -49.5842  -54.2937 N.am      5 UNK        -0.4607 
     50 C          31.8885  -50.8538  -54.4348 C.2       4 UNK         0.5031 
     51 O          31.3052  -51.8261  -53.9556 O.2       4 UNK        -0.5119 
     52 CA         33.1510  -51.0890  -55.2729 C.3       4 UNK         0.0263 
     53 CB         32.8032  -51.1249  -56.7716 C.3       4 UNK        -0.1967 
     54 N          34.1681  -50.0644  -55.0324 N.am      4 UNK        -0.4237 
     55 C          35.4724  -50.3152  -54.8620 C.2       3 UNK         0.4908 
     56 O          35.9686  -51.4425  -54.8935 O.2       3 UNK        -0.5102 
     57 CA         36.3910  -49.1058  -54.6244 C.3       3 UNK         0.0241 
     58 CB         36.8315  -48.4961  -55.9653 C.3       3 UNK        -0.1971 
     59 N          35.7779  -48.0626  -53.8031 N.am      3 UNK        -0.4139 
     60 C          35.4590  -48.1653  -52.5073 C.2       2 UNK         0.5016 
     61 O          35.6692  -49.1739  -51.8328 O.2       2 UNK        -0.5319 
     62 CA         34.7916  -46.9457  -51.8398 C.3       2 UNK         0.0286 
     63 CB         35.8432  -46.0192  -51.1991 C.3       2 UNK        -0.1963 
     64 N          33.8684  -46.1916  -52.7039 N.am      2 UNK        -0.4790 
     65 C          34.1396  -45.4697  -53.8019 C.2       1 UNK         0.5024 
     66 O          35.2712  -45.3096  -54.2651 O.2       1 UNK        -0.4888 
     67 H67        32.9660  -45.9477  -58.4141 H         1 UNK         0.0892 
     68 H68        33.5773  -47.5755  -58.1118 H         1 UNK         0.0892 
     69 H69        31.8369  -47.2724  -58.1210 H         1 UNK         0.0892 
     70 H70        32.9358  -44.5895  -56.6298 H         1 UNK         0.3107 
     71 H71        32.0208  -45.2512  -54.0732 H         1 UNK         0.0773 
     72 H72        33.7492  -42.8953  -54.9934 H         1 UNK         0.0680 
     73 H73        32.0094  -42.9327  -54.9673 H         1 UNK         0.0680 
     74 H74        31.0667  -41.9535  -51.3993 H         1 UNK         0.0650 
     75 H75        30.7590  -41.6508  -53.0923 H         1 UNK         0.0650 
     76 H76        31.2795  -44.4994  -50.6795 H         1 UNK         0.1397 
     77 H77        28.4526  -47.0362  -52.6744 H         1 UNK         0.1363 
     78 H78        29.3969  -43.1907  -54.3020 H         1 UNK         0.1355 
     79 H79        27.3186  -46.2947  -54.6223 H         1 UNK         0.0707 
     80 H80        27.3740  -44.6249  -55.1212 H         1 UNK         0.0707 
     81 H81        30.3462  -44.1691  -57.1573 H         1 UNK         0.1034 
     82 H82        28.8027  -43.6152  -56.6065 H         1 UNK         0.1034 
     83 H83        28.6538  -43.4711  -58.9454 H         1 UNK         0.0482 
     84 H84        28.3345  -46.6728  -60.0745 H         1 UNK         0.3460 
     85 H85        29.8924  -46.7627  -60.8590 H         1 UNK         0.3460 
     86 H86        27.0988  -45.6237  -57.7983 H         1 UNK         0.2989 
     87 H87        24.2691  -44.8399  -59.7121 H         1 UNK         0.0559 
     88 H88        25.7571  -47.5211  -59.7844 H         1 UNK         0.0848 
     89 H89        25.1757  -46.6260  -61.1810 H         1 UNK         0.0848 
     90 H90        24.0272  -47.2969  -60.0353 H         1 UNK         0.0848 
     91 H91        25.0545  -46.7004  -57.5675 H         1 UNK         0.3144 
     92 H92        24.7765  -44.9750  -54.9975 H         1 UNK         0.0727 
     93 H93        22.4663  -45.1287  -54.0241 H         1 UNK         0.0790 
     94 H94        21.7801  -45.1312  -55.6485 H         1 UNK         0.0790 
     95 H95        22.6366  -43.7158  -55.0496 H         1 UNK         0.0790 
     96 H96        23.5104  -47.3126  -56.2946 H         1 UNK         0.3215 
     97 H97        24.4638  -49.5461  -53.8352 H         1 UNK         0.0863 
     98 H98        23.4544  -50.6983  -55.7467 H         1 UNK         0.0808 
     99 H99        23.5635  -49.2711  -56.7627 H         1 UNK         0.0808 
    100 H100       22.4804  -49.2915  -55.3714 H         1 UNK         0.0808 
    101 H101       26.4267  -50.1289  -54.7140 H         1 UNK         0.3118 
    102 H102       27.7670  -50.8158  -56.6304 H         1 UNK         0.0546 
    103 H103       28.5980  -48.3638  -58.2683 H         1 UNK         0.0828 
    104 H104       27.6648  -49.7224  -58.8789 H         1 UNK         0.0828 
    105 H105       29.3226  -49.9685  -58.3554 H         1 UNK         0.0828 
    106 H106       29.6272  -48.6843  -56.1131 H         1 UNK         0.3005 
    107 H107       30.2191  -48.0453  -53.8794 H         1 UNK         0.1257 
    108 H108       29.1207  -49.1574  -51.7977 H         1 UNK         0.0775 
    109 H109       30.3456  -50.3811  -51.9057 H         1 UNK         0.0775 
    110 H110       29.2214  -47.4430  -50.2210 H         1 UNK         0.0840 
    111 H111       30.6177  -46.5734  -49.6524 H         1 UNK         0.0840 
    112 H112       32.0185  -48.8507  -54.7560 H         1 UNK         0.2987 
    113 H113       33.5358  -52.0705  -54.9870 H         1 UNK         0.0785 
    114 H114       33.6749  -51.3836  -57.3728 H         1 UNK         0.0798 
    115 H115       32.4291  -50.1619  -57.1220 H         1 UNK         0.0798 
    116 H116       32.0337  -51.8702  -56.9775 H         1 UNK         0.0798 
    117 H117       33.8485  -49.1000  -55.0173 H         1 UNK         0.3079 
    118 H118       37.2798  -49.4629  -54.0999 H         1 UNK         0.0794 
    119 H119       37.3113  -49.2453  -56.5966 H         1 UNK         0.0786 
    120 H120       37.5503  -47.6898  -55.8171 H         1 UNK         0.0786 
    121 H121       35.9850  -48.0920  -56.5224 H         1 UNK         0.0786 
    122 H122       35.6047  -47.1646  -54.2455 H         1 UNK         0.3032 
    123 H123       34.1768  -47.3441  -51.0310 H         1 UNK         0.1094 
    124 H124       36.4472  -46.5634  -50.4718 H         1 UNK         0.0794 
    125 H125       36.5278  -45.6021  -51.9381 H         1 UNK         0.0794 
    126 H126       35.3715  -45.1894  -50.6727 H         1 UNK         0.0794 
    127 H127       32.8942  -46.2912  -52.4500 H         1 UNK         0.3016 
@<TRIPOS>BOND
     1    1    2 1    
     2    1   67 1    
     3    1   68 1    
     4    1   69 1    
     5    2    3 2    
     6    2    4 am   BACKBONE|DICT|INTERRES
     7    4    5 1    
     8    4   70 1    
     9    5    6 1    
    10    5   65 1    
    11    5   71 1    
    12    6    7 1    
    13    6   72 1    
    14    6   73 1    
    15    7    8 1    
    16    8    9 1    
    17    8   74 1    
    18    8   75 1    
    19    9   10 ar   
    20    9   14 ar   
    21   10   11 ar   
    22   10   76 1    
    23   11   12 ar   
    24   11   48 1    
    25   12   13 ar   
    26   12   77 1    
    27   13   14 ar   
    28   13   15 1    
    29   14   78 1    
    30   15   16 1    
    31   15   79 1    
    32   15   80 1    
    33   16   17 1    
    34   17   18 1    
    35   17   81 1    
    36   17   82 1    
    37   18   19 1    
    38   18   22 1    
    39   18   83 1    
    40   19   20 am   BACKBONE|DICT|INTERRES
    41   19   21 2    
    42   20   84 1    
    43   20   85 1    
    44   22   23 am   BACKBONE|DICT|INTERRES
    45   22   86 1    
    46   23   24 2    
    47   23   25 1    
    48   25   26 1    
    49   25   27 1    
    50   25   87 1    
    51   26   88 1    
    52   26   89 1    
    53   26   90 1    
    54   27   28 am   BACKBONE|DICT|INTERRES
    55   27   91 1    
    56   28   29 2    
    57   28   30 1    
    58   30   31 1    
    59   30   32 1    
    60   30   92 1    
    61   31   93 1    
    62   31   94 1    
    63   31   95 1    
    64   32   33 am   BACKBONE|DICT|INTERRES
    65   32   96 1    
    66   33   34 2    
    67   33   35 1    
    68   35   36 1    
    69   35   37 1    
    70   35   97 1    
    71   36   98 1    
    72   36   99 1    
    73   36  100 1    
    74   37   38 am   BACKBONE|DICT|INTERRES
    75   37  101 1    
    76   38   39 2    
    77   38   40 1    
    78   40   41 1    
    79   40   42 1    
    80   40  102 1    
    81   41  103 1    
    82   41  104 1    
    83   41  105 1    
    84   42   43 am   BACKBONE|DICT|INTERRES
    85   42  106 1    
    86   43   44 2    
    87   43   45 1    
    88   45   46 1    
    89   45   49 1    
    90   45  107 1    
    91   46   47 1    
    92   46  108 1    
    93   46  109 1    
    94   47   48 1    
    95   48  110 1    
    96   48  111 1    
    97   49   50 am   BACKBONE|DICT|INTERRES
    98   49  112 1    
    99   50   51 2    
   100   50   52 1    
   101   52   53 1    
   102   52   54 1    
   103   52  113 1    
   104   53  114 1    
   105   53  115 1    
   106   53  116 1    
   107   54   55 am   BACKBONE|DICT|INTERRES
   108   54  117 1    
   109   55   56 2    
   110   55   57 1    
   111   57   58 1    
   112   57   59 1    
   113   57  118 1    
   114   58  119 1    
   115   58  120 1    
   116   58  121 1    
   117   59   60 am   BACKBONE|DICT|INTERRES
   118   59  122 1    
   119   60   61 2    
   120   60   62 1    
   121   62   63 1    
   122   62   64 1    
   123   62  123 1    
   124   63  124 1    
   125   63  125 1    
   126   63  126 1    
   127   64   65 am   BACKBONE|DICT|INTERRES
   128   64  127 1    
   129   65   66 2    
@<TRIPOS>SUBSTRUCTURE
     1 UNK         1 GROUP             0       ****    0 ROOT    
