@<TRIPOS>MOLECULE
3R134
127   129    1
SMALL
USER_CHARGES


@<TRIPOS>ATOM
      1 CA         38.1531  -42.6133  -49.7060 C.3       0 UNK        -0.1968 
      2 C          37.2184  -43.2865  -50.7007 C.2       0 UNK         0.4852 
      3 O          37.5513  -43.3824  -51.8832 O.2       0 UNK        -0.5359 
      4 N          36.0498  -43.7454  -50.2335 N.am      1 UNK        -0.4300 
      5 CA         35.0599  -44.4762  -51.0274 C.3       1 UNK         0.0863 
      6 C6         33.6863  -44.4977  -50.3071 C.3       11 UNK        -0.0953 
      7 S7         32.3445  -45.2111  -51.3147 S.3       11 UNK        -0.2369 
      8 C8         31.7247  -43.7395  -52.1814 C.3       11 UNK         0.0226 
      9 C9         30.8904  -44.1515  -53.3822 C.ar      11 UNK        -0.0699 
     10 C10        31.5269  -44.5682  -54.5538 C.ar      11 UNK        -0.0804 
     11 C11        30.7816  -44.9974  -55.6548 C.ar      11 UNK        -0.0871 
     12 C12        29.3858  -44.9778  -55.5880 C.ar      11 UNK        -0.1008 
     13 C13        28.7356  -44.5402  -54.4290 C.ar      11 UNK        -0.0735 
     14 C14        29.4936  -44.1369  -53.3247 C.ar      11 UNK        -0.0945 
     15 C15        27.2147  -44.5269  -54.3586 C.3       11 UNK         0.0169 
     16 S16        26.5247  -42.8525  -54.5581 S.3       11 UNK        -0.2669 
     17 C17        26.8961  -42.4722  -56.3075 C.3       11 UNK        -0.0850 
     18 CA         25.6354  -42.4830  -57.2221 C.3       10 UNK         0.0855 
     19 C          25.9290  -41.9135  -58.6452 C.2       10 UNK         0.5543 
     20 N          25.3187  -42.4287  -59.7054 N.am      10 UNK        -0.7343 
     21 O          26.6944  -40.9633  -58.7902 O.2       10 UNK        -0.5027 
     22 N          24.9106  -43.7693  -57.2047 N.am      10 UNK        -0.4495 
     23 C          25.3800  -44.9528  -57.6219 C.2       10 UNK         0.4903 
     24 O          26.5197  -45.1204  -58.0606 O.2       10 UNK        -0.4860 
     25 CA         24.4196  -46.1501  -57.4686 C.3       9 UNK         0.0227 
     26 CB         22.9806  -45.8393  -57.9405 C.3       9 UNK        -0.1964 
     27 N          24.9345  -47.3736  -58.0962 N.am      9 UNK        -0.4231 
     28 C          25.1119  -47.6205  -59.4053 C.2       9 UNK         0.5014 
     29 O          24.7549  -46.8530  -60.3011 O.2       9 UNK        -0.5270 
     30 CA         25.8088  -48.9398  -59.8016 C.3       8 UNK         0.0284 
     31 CB         27.0192  -48.6683  -60.7131 C.3       8 UNK        -0.1977 
     32 N          26.2580  -49.7166  -58.6429 N.am      8 UNK        -0.4342 
     33 C          25.5309  -50.6560  -58.0184 C.2       8 UNK         0.5039 
     34 O          24.4246  -51.0311  -58.4078 O.2       8 UNK        -0.5547 
     35 CA         26.1113  -51.2634  -56.7235 C.3       7 UNK         0.0281 
     36 CB         26.7977  -52.6063  -57.0202 C.3       7 UNK        -0.1963 
     37 N          27.0603  -50.3843  -56.0348 N.am      7 UNK        -0.4444 
     38 C          26.7738  -49.1664  -55.5523 C.2       7 UNK         0.5104 
     39 O          25.6360  -48.6990  -55.5216 O.2       7 UNK        -0.5100 
     40 CA         27.9539  -48.2846  -55.1092 C.3       6 UNK         0.0396 
     41 CB         27.9886  -48.1385  -53.5812 C.3       6 UNK        -0.1801 
     42 N          29.2608  -48.7336  -55.6083 N.am      6 UNK        -0.4747 
     43 C          29.6104  -48.7550  -56.9069 C.2       6 UNK         0.5012 
     44 O          28.8399  -48.4287  -57.8104 O.2       6 UNK        -0.5003 
     45 CA         31.0185  -49.2634  -57.2847 C.3       5 UNK         0.0782 
     46 C46        31.9160  -48.1331  -57.8460 C.3       11 UNK        -0.0868 
     47 S47        32.5019  -46.9562  -56.5777 S.3       11 UNK        -0.2515 
     48 C48        31.4896  -45.4769  -56.9127 C.3       11 UNK         0.0199 
     49 N          31.6821  -49.9998  -56.2064 N.am      5 UNK        -0.4607 
     50 C          31.3580  -51.2350  -55.8070 C.2       4 UNK         0.5031 
     51 O          30.4623  -51.9053  -56.3213 O.2       4 UNK        -0.5119 
     52 CA         32.1489  -51.8040  -54.6157 C.3       4 UNK         0.0263 
     53 CB         33.3871  -52.5685  -55.1098 C.3       4 UNK        -0.1967 
     54 N          32.5643  -50.7906  -53.6381 N.am      4 UNK        -0.4237 
     55 C          31.7363  -50.0128  -52.9301 C.2       3 UNK         0.4908 
     56 O          30.5144  -50.0355  -53.0638 O.2       3 UNK        -0.5102 
     57 CA         32.3514  -49.0379  -51.9109 C.3       3 UNK         0.0241 
     58 CB         32.6456  -49.7485  -50.5761 C.3       3 UNK        -0.1971 
     59 N          33.5206  -48.2811  -52.3804 N.am      3 UNK        -0.4139 
     60 C          34.7431  -48.7185  -52.7193 C.2       2 UNK         0.5016 
     61 O          35.0626  -49.9076  -52.7574 O.2       2 UNK        -0.5319 
     62 CA         35.7886  -47.6520  -53.0953 C.3       2 UNK         0.0286 
     63 CB         35.9892  -47.6105  -54.6187 C.3       2 UNK        -0.1963 
     64 N          35.4441  -46.3073  -52.6190 N.am      2 UNK        -0.4790 
     65 C          35.5757  -45.8958  -51.3497 C.2       1 UNK         0.5024 
     66 O          36.0500  -46.5922  -50.4490 O.2       1 UNK        -0.4888 
     67 H67        37.7287  -42.5834  -48.7026 H         1 UNK         0.0892 
     68 H68        39.0994  -43.1514  -49.6577 H         1 UNK         0.0892 
     69 H69        38.3583  -41.5895  -50.0175 H         1 UNK         0.0892 
     70 H70        35.8469  -43.6656  -49.2473 H         1 UNK         0.3107 
     71 H71        34.9360  -43.9325  -51.9667 H         1 UNK         0.0773 
     72 H72        33.3975  -43.4856  -50.0182 H         1 UNK         0.0680 
     73 H73        33.7508  -45.0664  -49.3773 H         1 UNK         0.0680 
     74 H74        32.5618  -43.1240  -52.5140 H         1 UNK         0.0650 
     75 H75        31.1414  -43.1289  -51.4905 H         1 UNK         0.0650 
     76 H76        32.6071  -44.5842  -54.6010 H         1 UNK         0.1397 
     77 H77        28.8031  -45.3052  -56.4391 H         1 UNK         0.1363 
     78 H78        28.9942  -43.8138  -52.4215 H         1 UNK         0.1355 
     79 H79        26.7850  -45.1885  -55.1099 H         1 UNK         0.0707 
     80 H80        26.8969  -44.9233  -53.3931 H         1 UNK         0.0707 
     81 H81        27.6543  -43.1508  -56.6960 H         1 UNK         0.1034 
     82 H82        27.3608  -41.4847  -56.3171 H         1 UNK         0.1034 
     83 H83        24.9339  -41.7659  -56.7944 H         1 UNK         0.0482 
     84 H84        24.6931  -43.2114  -59.6028 H         1 UNK         0.3460 
     85 H85        25.5055  -42.0456  -60.6186 H         1 UNK         0.3460 
     86 H86        23.9665  -43.7238  -56.8501 H         1 UNK         0.2989 
     87 H87        24.3761  -46.3678  -56.4006 H         1 UNK         0.0559 
     88 H88        22.5023  -45.0948  -57.3039 H         1 UNK         0.0848 
     89 H89        22.3534  -46.7303  -57.9070 H         1 UNK         0.0848 
     90 H90        22.9587  -45.4566  -58.9614 H         1 UNK         0.0848 
     91 H91        25.2675  -48.0667  -57.4356 H         1 UNK         0.3144 
     92 H92        25.0856  -49.5253  -60.3731 H         1 UNK         0.0727 
     93 H93        27.5243  -49.5934  -60.9913 H         1 UNK         0.0790 
     94 H94        27.7491  -48.0174  -60.2304 H         1 UNK         0.0790 
     95 H95        26.7108  -48.1788  -61.6378 H         1 UNK         0.0790 
     96 H96        27.1565  -49.4435  -58.2537 H         1 UNK         0.3215 
     97 H97        25.2748  -51.4445  -56.0452 H         1 UNK         0.0863 
     98 H98        27.1360  -53.0909  -56.1040 H         1 UNK         0.0808 
     99 H99        27.6636  -52.4820  -57.6723 H         1 UNK         0.0808 
    100 H100       26.1117  -53.2951  -57.5154 H         1 UNK         0.0808 
    101 H101       28.0254  -50.6849  -56.0109 H         1 UNK         0.3118 
    102 H102       27.7730  -47.2980  -55.5351 H         1 UNK         0.0546 
    103 H103       28.0834  -49.1046  -53.0853 H         1 UNK         0.0828 
    104 H104       27.0704  -47.6775  -53.2152 H         1 UNK         0.0828 
    105 H105       28.8179  -47.5078  -53.2593 H         1 UNK         0.0828 
    106 H106       29.9207  -49.0630  -54.9129 H         1 UNK         0.3005 
    107 H107       30.8565  -49.9711  -58.1016 H         1 UNK         0.1257 
    108 H108       32.8022  -48.5788  -58.3003 H         1 UNK         0.0775 
    109 H109       31.4175  -47.6064  -58.6617 H         1 UNK         0.0775 
    110 H110       32.1359  -44.6822  -57.2877 H         1 UNK         0.0840 
    111 H111       30.7630  -45.6761  -57.7014 H         1 UNK         0.0840 
    112 H112       32.4190  -49.5070  -55.7230 H         1 UNK         0.2987 
    113 H113       31.4939  -52.5086  -54.0990 H         1 UNK         0.0785 
    114 H114       33.9046  -53.0598  -54.2855 H         1 UNK         0.0798 
    115 H115       34.0987  -51.9067  -55.6053 H         1 UNK         0.0798 
    116 H116       33.1087  -53.3442  -55.8246 H         1 UNK         0.0798 
    117 H117       33.5608  -50.6952  -53.4484 H         1 UNK         0.3079 
    118 H118       31.5857  -48.2858  -51.7123 H         1 UNK         0.0794 
    119 H119       31.7482  -50.2304  -50.1857 H         1 UNK         0.0786 
    120 H120       32.9886  -49.0416  -49.8204 H         1 UNK         0.0786 
    121 H121       33.4079  -50.5209  -50.6830 H         1 UNK         0.0786 
    122 H122       33.3799  -47.2802  -52.4142 H         1 UNK         0.3032 
    123 H123       36.7327  -47.9537  -52.6353 H         1 UNK         0.1094 
    124 H124       35.0841  -47.2956  -55.1376 H         1 UNK         0.0794 
    125 H125       36.7901  -46.9242  -54.8944 H         1 UNK         0.0794 
    126 H126       36.2609  -48.5939  -55.0053 H         1 UNK         0.0794 
    127 H127       35.0647  -45.6680  -53.3032 H         1 UNK         0.3016 
@<TRIPOS>BOND
     1    1    2 1    
     2    1   67 1    
     3    1   68 1    
     4    1   69 1    
     5    2    3 2    
     6    2    4 am   BACKBONE|DICT|INTERRES
     7    4    5 1    
     8    4   70 1    
     9    5    6 1    
    10    5   65 1    
    11    5   71 1    
    12    6    7 1    
    13    6   72 1    
    14    6   73 1    
    15    7    8 1    
    16    8    9 1    
    17    8   74 1    
    18    8   75 1    
    19    9   10 ar   
    20    9   14 ar   
    21   10   11 ar   
    22   10   76 1    
    23   11   12 ar   
    24   11   48 1    
    25   12   13 ar   
    26   12   77 1    
    27   13   14 ar   
    28   13   15 1    
    29   14   78 1    
    30   15   16 1    
    31   15   79 1    
    32   15   80 1    
    33   16   17 1    
    34   17   18 1    
    35   17   81 1    
    36   17   82 1    
    37   18   19 1    
    38   18   22 1    
    39   18   83 1    
    40   19   20 am   BACKBONE|DICT|INTERRES
    41   19   21 2    
    42   20   84 1    
    43   20   85 1    
    44   22   23 am   BACKBONE|DICT|INTERRES
    45   22   86 1    
    46   23   24 2    
    47   23   25 1    
    48   25   26 1    
    49   25   27 1    
    50   25   87 1    
    51   26   88 1    
    52   26   89 1    
    53   26   90 1    
    54   27   28 am   BACKBONE|DICT|INTERRES
    55   27   91 1    
    56   28   29 2    
    57   28   30 1    
    58   30   31 1    
    59   30   32 1    
    60   30   92 1    
    61   31   93 1    
    62   31   94 1    
    63   31   95 1    
    64   32   33 am   BACKBONE|DICT|INTERRES
    65   32   96 1    
    66   33   34 2    
    67   33   35 1    
    68   35   36 1    
    69   35   37 1    
    70   35   97 1    
    71   36   98 1    
    72   36   99 1    
    73   36  100 1    
    74   37   38 am   BACKBONE|DICT|INTERRES
    75   37  101 1    
    76   38   39 2    
    77   38   40 1    
    78   40   41 1    
    79   40   42 1    
    80   40  102 1    
    81   41  103 1    
    82   41  104 1    
    83   41  105 1    
    84   42   43 am   BACKBONE|DICT|INTERRES
    85   42  106 1    
    86   43   44 2    
    87   43   45 1    
    88   45   46 1    
    89   45   49 1    
    90   45  107 1    
    91   46   47 1    
    92   46  108 1    
    93   46  109 1    
    94   47   48 1    
    95   48  110 1    
    96   48  111 1    
    97   49   50 am   BACKBONE|DICT|INTERRES
    98   49  112 1    
    99   50   51 2    
   100   50   52 1    
   101   52   53 1    
   102   52   54 1    
   103   52  113 1    
   104   53  114 1    
   105   53  115 1    
   106   53  116 1    
   107   54   55 am   BACKBONE|DICT|INTERRES
   108   54  117 1    
   109   55   56 2    
   110   55   57 1    
   111   57   58 1    
   112   57   59 1    
   113   57  118 1    
   114   58  119 1    
   115   58  120 1    
   116   58  121 1    
   117   59   60 am   BACKBONE|DICT|INTERRES
   118   59  122 1    
   119   60   61 2    
   120   60   62 1    
   121   62   63 1    
   122   62   64 1    
   123   62  123 1    
   124   63  124 1    
   125   63  125 1    
   126   63  126 1    
   127   64   65 am   BACKBONE|DICT|INTERRES
   128   64  127 1    
   129   65   66 2    
@<TRIPOS>SUBSTRUCTURE
     1 UNK         1 GROUP             0       ****    0 ROOT    
