@<TRIPOS>MOLECULE
3R134
127   129    1
SMALL
USER_CHARGES


@<TRIPOS>ATOM
      1 CA         27.2495  -46.8319  -50.6553 C.3       0 UNK        -0.1968 
      2 C          28.4087  -47.1590  -51.5846 C.2       0 UNK         0.4852 
      3 O          28.2194  -47.9165  -52.5363 O.2       0 UNK        -0.5359 
      4 N          29.5906  -46.5872  -51.3117 N.am      1 UNK        -0.4300 
      5 CA         30.8409  -46.7340  -52.0705 C.3       1 UNK         0.0863 
      6 C6         30.7705  -46.1718  -53.5157 C.3       11 UNK        -0.0953 
      7 S7         30.3868  -44.3882  -53.5004 S.3       11 UNK        -0.2369 
      8 C8         31.9368  -43.6331  -54.0930 C.3       11 UNK         0.0226 
      9 C9         31.9739  -43.5009  -55.6105 C.ar      11 UNK        -0.0699 
     10 C10        32.9972  -44.0942  -56.3568 C.ar      11 UNK        -0.0804 
     11 C11        33.0478  -43.9351  -57.7467 C.ar      11 UNK        -0.0871 
     12 C12        32.0415  -43.2051  -58.3909 C.ar      11 UNK        -0.1008 
     13 C13        31.0173  -42.5970  -57.6549 C.ar      11 UNK        -0.0735 
     14 C14        31.0066  -42.7327  -56.2647 C.ar      11 UNK        -0.0945 
     15 C15        29.9601  -41.7468  -58.3529 C.3       11 UNK         0.0169 
     16 S16        28.3205  -42.5490  -58.4158 S.3       11 UNK        -0.2669 
     17 C17        27.5848  -42.1054  -56.8028 C.3       11 UNK        -0.0850 
     18 CA         27.4650  -43.3039  -55.8113 C.3       10 UNK         0.0855 
     19 C          27.1188  -42.8434  -54.3604 C.2       10 UNK         0.5543 
     20 N          26.3781  -43.6197  -53.5779 N.am      10 UNK        -0.7343 
     21 O          27.5453  -41.7768  -53.9245 O.2       10 UNK        -0.5027 
     22 N          26.6314  -44.4143  -56.3070 N.am      10 UNK        -0.4495 
     23 C          25.3227  -44.3645  -56.5945 C.2       10 UNK         0.4903 
     24 O          24.6439  -43.3381  -56.5638 O.2       10 UNK        -0.4860 
     25 CA         24.6401  -45.6995  -56.9233 C.3       9 UNK         0.0227 
     26 CB         24.9604  -46.1469  -58.3591 C.3       9 UNK        -0.1964 
     27 N          25.0548  -46.7366  -55.9747 N.am      9 UNK        -0.4231 
     28 C          24.3197  -47.1790  -54.9449 C.2       9 UNK         0.5014 
     29 O          23.1786  -46.7769  -54.7104 O.2       9 UNK        -0.5270 
     30 CA         24.9468  -48.2120  -53.9812 C.3       8 UNK         0.0284 
     31 CB         23.9881  -49.3854  -53.6872 C.3       8 UNK        -0.1977 
     32 N          26.2778  -48.7021  -54.3632 N.am      8 UNK        -0.4342 
     33 C          26.6151  -49.4413  -55.4276 C.2       8 UNK         0.5039 
     34 O          25.8180  -49.8647  -56.2676 O.2       8 UNK        -0.5547 
     35 CA         28.1197  -49.7064  -55.6123 C.3       7 UNK         0.0281 
     36 CB         28.4019  -51.2176  -55.6601 C.3       7 UNK        -0.1963 
     37 N          28.6562  -49.0766  -56.8228 N.am      7 UNK        -0.4444 
     38 C          28.5150  -47.7904  -57.1794 C.2       7 UNK         0.5104 
     39 O          27.8692  -46.9586  -56.5366 O.2       7 UNK        -0.5100 
     40 CA         29.2410  -47.3686  -58.4738 C.3       6 UNK         0.0396 
     41 CB         29.2193  -45.8455  -58.6967 C.3       6 UNK        -0.1801 
     42 N          30.6208  -47.8633  -58.5406 N.am      6 UNK        -0.4747 
     43 C          31.5845  -47.6497  -57.6309 C.2       6 UNK         0.5012 
     44 O          31.4313  -47.0160  -56.5878 O.2       6 UNK        -0.5003 
     45 CA         32.9537  -48.2963  -57.9070 C.3       5 UNK         0.0782 
     46 C46        34.0919  -47.2491  -57.9661 C.3       11 UNK        -0.0868 
     47 S47        33.9000  -46.0732  -59.3514 S.3       11 UNK        -0.2515 
     48 C48        34.2319  -44.4744  -58.5435 C.3       11 UNK         0.0199 
     49 N          33.1999  -49.2943  -56.8669 N.am      5 UNK        -0.4607 
     50 C          32.5212  -50.4420  -56.7422 C.2       4 UNK         0.5031 
     51 O          31.7447  -50.8631  -57.6010 O.2       4 UNK        -0.5119 
     52 CA         32.6708  -51.2271  -55.4287 C.3       4 UNK         0.0263 
     53 CB         33.1696  -52.6682  -55.6621 C.3       4 UNK        -0.1967 
     54 N          33.4306  -50.5271  -54.3844 N.am      4 UNK        -0.4237 
     55 C          34.7600  -50.3926  -54.2486 C.2       3 UNK         0.4908 
     56 O          35.5791  -50.8173  -55.0629 O.2       3 UNK        -0.5102 
     57 CA         35.2766  -49.6322  -53.0066 C.3       3 UNK         0.0241 
     58 CB         35.8926  -48.2852  -53.4233 C.3       3 UNK        -0.1971 
     59 N          34.2506  -49.3832  -51.9886 N.am      3 UNK        -0.4139 
     60 C          33.6265  -50.3180  -51.2571 C.2       2 UNK         0.5016 
     61 O          33.9595  -51.5032  -51.2403 O.2       2 UNK        -0.5319 
     62 CA         32.3953  -49.8716  -50.4408 C.3       2 UNK         0.0286 
     63 CB         32.7142  -49.8878  -48.9365 C.3       2 UNK        -0.1963 
     64 N          31.8447  -48.5537  -50.7956 N.am      2 UNK        -0.4790 
     65 C          31.3661  -48.1823  -51.9943 C.2       1 UNK         0.5024 
     66 O          31.3551  -48.9197  -52.9824 O.2       1 UNK        -0.4888 
     67 H67        27.5638  -46.2240  -49.8072 H         1 UNK         0.0892 
     68 H68        26.4792  -46.2848  -51.1980 H         1 UNK         0.0892 
     69 H69        26.8081  -47.7501  -50.2688 H         1 UNK         0.0892 
     70 H70        29.6538  -45.9760  -50.5097 H         1 UNK         0.3107 
     71 H71        31.5792  -46.1282  -51.5420 H         1 UNK         0.0773 
     72 H72        30.0129  -46.6884  -54.1079 H         1 UNK         0.0680 
     73 H73        31.7173  -46.3287  -54.0348 H         1 UNK         0.0680 
     74 H74        32.0212  -42.6363  -53.6585 H         1 UNK         0.0650 
     75 H75        32.7907  -44.2009  -53.7205 H         1 UNK         0.0650 
     76 H76        33.7688  -44.6575  -55.8514 H         1 UNK         0.1397 
     77 H77        32.0771  -43.0824  -59.4648 H         1 UNK         0.1363 
     78 H78        30.2413  -42.2415  -55.6819 H         1 UNK         0.1355 
     79 H79        29.8852  -40.7735  -57.8662 H         1 UNK         0.0707 
     80 H80        30.2707  -41.5400  -59.3781 H         1 UNK         0.0707 
     81 H81        26.6043  -41.6644  -56.9850 H         1 UNK         0.1034 
     82 H82        28.1778  -41.3012  -56.3659 H         1 UNK         0.1034 
     83 H83        28.4561  -43.7454  -55.7212 H         1 UNK         0.0482 
     84 H84        26.1656  -43.3160  -52.6413 H         1 UNK         0.3460 
     85 H85        26.0256  -44.4964  -53.9230 H         1 UNK         0.3460 
     86 H86        27.1090  -45.3113  -56.3677 H         1 UNK         0.2989 
     87 H87        23.5611  -45.5435  -56.8629 H         1 UNK         0.0559 
     88 H88        24.6778  -45.3782  -59.0795 H         1 UNK         0.0848 
     89 H89        24.4126  -47.0527  -58.6192 H         1 UNK         0.0848 
     90 H90        26.0210  -46.3505  -58.4987 H         1 UNK         0.0848 
     91 H91        26.0037  -47.0865  -56.0778 H         1 UNK         0.3144 
     92 H92        25.0991  -47.6774  -53.0427 H         1 UNK         0.0727 
     93 H93        24.4259  -50.0870  -52.9772 H         1 UNK         0.0790 
     94 H94        23.7331  -49.9375  -54.5921 H         1 UNK         0.0790 
     95 H95        23.0534  -49.0291  -53.2526 H         1 UNK         0.0790 
     96 H96        27.0350  -48.3975  -53.7451 H         1 UNK         0.3215 
     97 H97        28.6674  -49.2854  -54.7665 H         1 UNK         0.0863 
     98 H98        29.4658  -51.4242  -55.7631 H         1 UNK         0.0808 
     99 H99        27.8883  -51.6973  -56.4944 H         1 UNK         0.0808 
    100 H100       28.0634  -51.7049  -54.7449 H         1 UNK         0.0808 
    101 H101       29.2187  -49.6660  -57.4197 H         1 UNK         0.3118 
    102 H102       28.7003  -47.8336  -59.2991 H         1 UNK         0.0546 
    103 H103       29.7528  -45.5633  -59.6040 H         1 UNK         0.0828 
    104 H104       29.6766  -45.3104  -57.8628 H         1 UNK         0.0828 
    105 H105       28.1980  -45.4801  -58.7961 H         1 UNK         0.0828 
    106 H106       30.8399  -48.4333  -59.3463 H         1 UNK         0.3005 
    107 H107       32.9196  -48.8136  -58.8687 H         1 UNK         0.1257 
    108 H108       34.1645  -46.7089  -57.0212 H         1 UNK         0.0775 
    109 H109       35.0505  -47.7539  -58.0955 H         1 UNK         0.0775 
    110 H110       35.1141  -44.5640  -57.9076 H         1 UNK         0.0840 
    111 H111       34.4994  -43.7510  -59.3152 H         1 UNK         0.0840 
    112 H112       33.7949  -49.0118  -56.1037 H         1 UNK         0.2987 
    113 H113       31.6630  -51.3037  -55.0203 H         1 UNK         0.0785 
    114 H114       33.2546  -53.2167  -54.7240 H         1 UNK         0.0798 
    115 H115       34.1408  -52.6905  -56.1566 H         1 UNK         0.0798 
    116 H116       32.4754  -53.2193  -56.2977 H         1 UNK         0.0798 
    117 H117       32.8435  -50.0606  -53.6984 H         1 UNK         0.3079 
    118 H118       36.0579  -50.2466  -52.5543 H         1 UNK         0.0794 
    119 H119       36.6903  -48.4279  -54.1538 H         1 UNK         0.0786 
    120 H120       36.3304  -47.7677  -52.5694 H         1 UNK         0.0786 
    121 H121       35.1522  -47.6233  -53.8747 H         1 UNK         0.0786 
    122 H122       33.9147  -48.4348  -51.9110 H         1 UNK         0.3032 
    123 H123       31.6137  -50.6101  -50.6326 H         1 UNK         0.1094 
    124 H124       33.4723  -49.1479  -48.6767 H         1 UNK         0.0794 
    125 H125       31.8253  -49.6845  -48.3388 H         1 UNK         0.0794 
    126 H126       33.0918  -50.8633  -48.6260 H         1 UNK         0.0794 
    127 H127       31.8042  -47.8805  -50.0431 H         1 UNK         0.3016 
@<TRIPOS>BOND
     1    1    2 1    
     2    1   67 1    
     3    1   68 1    
     4    1   69 1    
     5    2    3 2    
     6    2    4 am   BACKBONE|DICT|INTERRES
     7    4    5 1    
     8    4   70 1    
     9    5    6 1    
    10    5   65 1    
    11    5   71 1    
    12    6    7 1    
    13    6   72 1    
    14    6   73 1    
    15    7    8 1    
    16    8    9 1    
    17    8   74 1    
    18    8   75 1    
    19    9   10 ar   
    20    9   14 ar   
    21   10   11 ar   
    22   10   76 1    
    23   11   12 ar   
    24   11   48 1    
    25   12   13 ar   
    26   12   77 1    
    27   13   14 ar   
    28   13   15 1    
    29   14   78 1    
    30   15   16 1    
    31   15   79 1    
    32   15   80 1    
    33   16   17 1    
    34   17   18 1    
    35   17   81 1    
    36   17   82 1    
    37   18   19 1    
    38   18   22 1    
    39   18   83 1    
    40   19   20 am   BACKBONE|DICT|INTERRES
    41   19   21 2    
    42   20   84 1    
    43   20   85 1    
    44   22   23 am   BACKBONE|DICT|INTERRES
    45   22   86 1    
    46   23   24 2    
    47   23   25 1    
    48   25   26 1    
    49   25   27 1    
    50   25   87 1    
    51   26   88 1    
    52   26   89 1    
    53   26   90 1    
    54   27   28 am   BACKBONE|DICT|INTERRES
    55   27   91 1    
    56   28   29 2    
    57   28   30 1    
    58   30   31 1    
    59   30   32 1    
    60   30   92 1    
    61   31   93 1    
    62   31   94 1    
    63   31   95 1    
    64   32   33 am   BACKBONE|DICT|INTERRES
    65   32   96 1    
    66   33   34 2    
    67   33   35 1    
    68   35   36 1    
    69   35   37 1    
    70   35   97 1    
    71   36   98 1    
    72   36   99 1    
    73   36  100 1    
    74   37   38 am   BACKBONE|DICT|INTERRES
    75   37  101 1    
    76   38   39 2    
    77   38   40 1    
    78   40   41 1    
    79   40   42 1    
    80   40  102 1    
    81   41  103 1    
    82   41  104 1    
    83   41  105 1    
    84   42   43 am   BACKBONE|DICT|INTERRES
    85   42  106 1    
    86   43   44 2    
    87   43   45 1    
    88   45   46 1    
    89   45   49 1    
    90   45  107 1    
    91   46   47 1    
    92   46  108 1    
    93   46  109 1    
    94   47   48 1    
    95   48  110 1    
    96   48  111 1    
    97   49   50 am   BACKBONE|DICT|INTERRES
    98   49  112 1    
    99   50   51 2    
   100   50   52 1    
   101   52   53 1    
   102   52   54 1    
   103   52  113 1    
   104   53  114 1    
   105   53  115 1    
   106   53  116 1    
   107   54   55 am   BACKBONE|DICT|INTERRES
   108   54  117 1    
   109   55   56 2    
   110   55   57 1    
   111   57   58 1    
   112   57   59 1    
   113   57  118 1    
   114   58  119 1    
   115   58  120 1    
   116   58  121 1    
   117   59   60 am   BACKBONE|DICT|INTERRES
   118   59  122 1    
   119   60   61 2    
   120   60   62 1    
   121   62   63 1    
   122   62   64 1    
   123   62  123 1    
   124   63  124 1    
   125   63  125 1    
   126   63  126 1    
   127   64   65 am   BACKBONE|DICT|INTERRES
   128   64  127 1    
   129   65   66 2    
@<TRIPOS>SUBSTRUCTURE
     1 UNK         1 GROUP             0       ****    0 ROOT    
