@<TRIPOS>MOLECULE
3R134
127   129    1
SMALL
USER_CHARGES


@<TRIPOS>ATOM
      1 CA         35.3474  -46.6270  -49.2190 C.3       0 UNK        -0.1968 
      2 C          34.9648  -46.8345  -50.6759 C.2       0 UNK         0.4852 
      3 O          34.3809  -47.8654  -51.0142 O.2       0 UNK        -0.5359 
      4 N          35.2685  -45.8587  -51.5436 N.am      1 UNK        -0.4300 
      5 CA         34.9831  -45.9001  -52.9839 C.3       1 UNK         0.0863 
      6 C6         35.6414  -44.7222  -53.7438 C.3       11 UNK        -0.0953 
      7 S7         35.0277  -43.0693  -53.2558 S.3       11 UNK        -0.2369 
      8 C8         34.6865  -42.2936  -54.8688 C.3       11 UNK         0.0226 
      9 C9         33.4712  -42.8885  -55.5694 C.ar      11 UNK        -0.0699 
     10 C10        33.6366  -43.8371  -56.5837 C.ar      11 UNK        -0.0804 
     11 C11        32.5289  -44.3646  -57.2525 C.ar      11 UNK        -0.0871 
     12 C12        31.2478  -43.9168  -56.9198 C.ar      11 UNK        -0.1008 
     13 C13        31.0669  -42.9696  -55.9079 C.ar      11 UNK        -0.0735 
     14 C14        32.1819  -42.4633  -55.2308 C.ar      11 UNK        -0.0945 
     15 C15        29.6646  -42.4940  -55.5601 C.3       11 UNK         0.0169 
     16 S16        28.7276  -43.8042  -54.7215 S.3       11 UNK        -0.2669 
     17 C17        27.1266  -42.9829  -54.4081 C.3       11 UNK        -0.0850 
     18 CA         25.9734  -43.4678  -55.3276 C.3       10 UNK         0.0855 
     19 C          26.0489  -42.8366  -56.7449 C.2       10 UNK         0.5543 
     20 N          25.6026  -41.5962  -56.8897 N.am      10 UNK        -0.7343 
     21 O          26.5347  -43.4376  -57.7011 O.2       10 UNK        -0.5027 
     22 N          25.9094  -44.9331  -55.3772 N.am      10 UNK        -0.4495 
     23 C          24.8048  -45.6521  -55.5924 C.2       10 UNK         0.4903 
     24 O          23.6689  -45.1757  -55.6407 O.2       10 UNK        -0.4860 
     25 CA         25.0351  -47.1596  -55.8057 C.3       9 UNK         0.0227 
     26 CB         23.7224  -47.9670  -55.8932 C.3       9 UNK        -0.1964 
     27 N          25.8883  -47.4177  -56.9726 N.am      9 UNK        -0.4231 
     28 C          25.6482  -47.0704  -58.2494 C.2       9 UNK         0.5014 
     29 O          24.6374  -46.4850  -58.6398 O.2       9 UNK        -0.5270 
     30 CA         26.7127  -47.4814  -59.2769 C.3       8 UNK         0.0284 
     31 CB         27.9073  -46.5121  -59.2442 C.3       8 UNK        -0.1977 
     32 N          27.1639  -48.8537  -59.0355 N.am      8 UNK        -0.4342 
     33 C          26.5122  -49.9453  -59.4652 C.2       8 UNK         0.5039 
     34 O          25.5250  -49.9068  -60.2008 O.2       8 UNK        -0.5547 
     35 CA         27.0413  -51.3166  -59.0037 C.3       7 UNK         0.0281 
     36 CB         28.0117  -51.8968  -60.0454 C.3       7 UNK        -0.1963 
     37 N          27.7048  -51.2681  -57.6994 N.am      7 UNK        -0.4444 
     38 C          27.0814  -51.0690  -56.5289 C.2       7 UNK         0.5104 
     39 O          25.8589  -51.0065  -56.4052 O.2       7 UNK        -0.5100 
     40 CA         27.9767  -50.8744  -55.2903 C.3       6 UNK         0.0396 
     41 CB         28.1158  -52.1943  -54.5166 C.3       6 UNK        -0.1801 
     42 N          29.3129  -50.3527  -55.6028 N.am      6 UNK        -0.4747 
     43 C          29.5721  -49.1629  -56.1645 C.2       6 UNK         0.5012 
     44 O          28.6792  -48.3732  -56.4838 O.2       6 UNK        -0.5003 
     45 CA         31.0540  -48.8344  -56.4696 C.3       5 UNK         0.0782 
     46 C46        31.2446  -47.3796  -56.9669 C.3       11 UNK        -0.0868 
     47 S47        32.9183  -47.0820  -57.6268 S.3       11 UNK        -0.2515 
     48 C48        32.7192  -45.4164  -58.3355 C.3       11 UNK         0.0199 
     49 N          31.9316  -49.1394  -55.3326 N.am      5 UNK        -0.4607 
     50 C          32.3793  -50.3547  -54.9924 C.2       4 UNK         0.5031 
     51 O          32.0943  -51.3795  -55.6126 O.2       4 UNK        -0.5119 
     52 CA         33.2359  -50.4541  -53.7186 C.3       4 UNK         0.0263 
     53 CB         34.6783  -49.9963  -53.9872 C.3       4 UNK        -0.1967 
     54 N          32.6681  -49.6893  -52.6055 N.am      4 UNK        -0.4237 
     55 C          31.4981  -49.9682  -52.0092 C.2       3 UNK         0.4908 
     56 O          30.8116  -50.9553  -52.2732 O.2       3 UNK        -0.5102 
     57 CA         30.9979  -48.9726  -50.9517 C.3       3 UNK         0.0241 
     58 CB         31.5832  -49.2954  -49.5670 C.3       3 UNK        -0.1971 
     59 N          31.3193  -47.5936  -51.3224 N.am      3 UNK        -0.4139 
     60 C          30.6126  -46.8687  -52.2024 C.2       2 UNK         0.5016 
     61 O          29.5637  -47.2535  -52.7188 O.2       2 UNK        -0.5319 
     62 CA         31.1705  -45.4844  -52.5788 C.3       2 UNK         0.0286 
     63 CB         30.5464  -44.3898  -51.6986 C.3       2 UNK        -0.1963 
     64 N          32.6280  -45.3951  -52.4899 N.am      2 UNK        -0.4790 
     65 C          33.4780  -46.0458  -53.2966 C.2       1 UNK         0.5024 
     66 O          33.1158  -46.7948  -54.2010 O.2       1 UNK        -0.4888 
     67 H67        34.4590  -46.6656  -48.5893 H         1 UNK         0.0892 
     68 H68        35.8374  -45.6669  -49.0582 H         1 UNK         0.0892 
     69 H69        36.0280  -47.4144  -48.8964 H         1 UNK         0.0892 
     70 H70        35.7333  -45.0236  -51.2158 H         1 UNK         0.3107 
     71 H71        35.4548  -46.8123  -53.3552 H         1 UNK         0.0773 
     72 H72        35.5225  -44.8662  -54.8172 H         1 UNK         0.0680 
     73 H73        36.7189  -44.7370  -53.5736 H         1 UNK         0.0680 
     74 H74        34.5240  -41.2263  -54.7121 H         1 UNK         0.0650 
     75 H75        35.5723  -42.3729  -55.5010 H         1 UNK         0.0650 
     76 H76        34.6285  -44.1713  -56.8547 H         1 UNK         0.1397 
     77 H77        30.3849  -44.3161  -57.4357 H         1 UNK         0.1363 
     78 H78        32.0500  -41.7304  -54.4466 H         1 UNK         0.1355 
     79 H79        29.1428  -42.1994  -56.4720 H         1 UNK         0.0707 
     80 H80        29.7043  -41.6110  -54.9203 H         1 UNK         0.0707 
     81 H81        27.2417  -41.8984  -54.4569 H         1 UNK         0.1034 
     82 H82        26.8600  -43.1931  -53.3712 H         1 UNK         0.1034 
     83 H83        25.0431  -43.1132  -54.8785 H         1 UNK         0.0482 
     84 H84        25.6532  -41.1628  -57.7984 H         1 UNK         0.3460 
     85 H85        25.2039  -41.0883  -56.1154 H         1 UNK         0.3460 
     86 H86        26.8071  -45.3961  -55.3915 H         1 UNK         0.2989 
     87 H87        25.5852  -47.5218  -54.9356 H         1 UNK         0.0559 
     88 H88        23.1034  -47.6514  -56.7336 H         1 UNK         0.0848 
     89 H89        23.1278  -47.8415  -54.9877 H         1 UNK         0.0848 
     90 H90        23.9204  -49.0328  -56.0061 H         1 UNK         0.0848 
     91 H91        26.7851  -47.8503  -56.7693 H         1 UNK         0.3144 
     92 H92        26.2666  -47.4251  -60.2725 H         1 UNK         0.0727 
     93 H93        27.5942  -45.5096  -59.5395 H         1 UNK         0.0790 
     94 H94        28.6951  -46.8222  -59.9307 H         1 UNK         0.0790 
     95 H95        28.3391  -46.4259  -58.2473 H         1 UNK         0.0790 
     96 H96        27.9317  -48.9677  -58.3866 H         1 UNK         0.3215 
     97 H97        26.1838  -51.9887  -58.9229 H         1 UNK         0.0863 
     98 H98        28.3372  -52.9002  -59.7701 H         1 UNK         0.0808 
     99 H99        28.8997  -51.2745  -60.1640 H         1 UNK         0.0808 
    100 H100       27.5336  -51.9708  -61.0233 H         1 UNK         0.0808 
    101 H101       28.7115  -51.3415  -57.6919 H         1 UNK         0.3118 
    102 H102       27.4832  -50.1474  -54.6419 H         1 UNK         0.0546 
    103 H103       27.1372  -52.5993  -54.2549 H         1 UNK         0.0828 
    104 H104       28.6638  -52.0518  -53.5852 H         1 UNK         0.0828 
    105 H105       28.6381  -52.9528  -55.1008 H         1 UNK         0.0828 
    106 H106       30.1038  -50.9512  -55.3875 H         1 UNK         0.3005 
    107 H107       31.3340  -49.4929  -57.2950 H         1 UNK         0.1257 
    108 H108       31.0440  -46.6729  -56.1591 H         1 UNK         0.0775 
    109 H109       30.5416  -47.1482  -57.7679 H         1 UNK         0.0775 
    110 H110       33.6039  -45.1768  -58.9271 H         1 UNK         0.0840 
    111 H111       31.8789  -45.4118  -59.0317 H         1 UNK         0.0840 
    112 H112       32.2504  -48.3342  -54.7980 H         1 UNK         0.2987 
    113 H113       33.2647  -51.5035  -53.4176 H         1 UNK         0.0785 
    114 H114       35.1429  -50.6118  -54.7586 H         1 UNK         0.0798 
    115 H115       35.2946  -50.0768  -53.0914 H         1 UNK         0.0798 
    116 H116       34.7194  -48.9626  -54.3304 H         1 UNK         0.0798 
    117 H117       33.2069  -48.8981  -52.2663 H         1 UNK         0.3079 
    118 H118       29.9122  -49.0743  -50.8868 H         1 UNK         0.0794 
    119 H119       32.6719  -49.2410  -49.5586 H         1 UNK         0.0786 
    120 H120       31.3076  -50.3041  -49.2565 H         1 UNK         0.0786 
    121 H121       31.2071  -48.6093  -48.8080 H         1 UNK         0.0786 
    122 H122       32.1996  -47.2257  -50.9871 H         1 UNK         0.3032 
    123 H123       30.8958  -45.3000  -53.6193 H         1 UNK         0.1094 
    124 H124       30.8457  -43.3966  -52.0344 H         1 UNK         0.0794 
    125 H125       29.4571  -44.4285  -51.7435 H         1 UNK         0.0794 
    126 H126       30.8340  -44.4964  -50.6521 H         1 UNK         0.0794 
    127 H127       33.0126  -44.7934  -51.7761 H         1 UNK         0.3016 
@<TRIPOS>BOND
     1    1    2 1    
     2    1   67 1    
     3    1   68 1    
     4    1   69 1    
     5    2    3 2    
     6    2    4 am   BACKBONE|DICT|INTERRES
     7    4    5 1    
     8    4   70 1    
     9    5    6 1    
    10    5   65 1    
    11    5   71 1    
    12    6    7 1    
    13    6   72 1    
    14    6   73 1    
    15    7    8 1    
    16    8    9 1    
    17    8   74 1    
    18    8   75 1    
    19    9   10 ar   
    20    9   14 ar   
    21   10   11 ar   
    22   10   76 1    
    23   11   12 ar   
    24   11   48 1    
    25   12   13 ar   
    26   12   77 1    
    27   13   14 ar   
    28   13   15 1    
    29   14   78 1    
    30   15   16 1    
    31   15   79 1    
    32   15   80 1    
    33   16   17 1    
    34   17   18 1    
    35   17   81 1    
    36   17   82 1    
    37   18   19 1    
    38   18   22 1    
    39   18   83 1    
    40   19   20 am   BACKBONE|DICT|INTERRES
    41   19   21 2    
    42   20   84 1    
    43   20   85 1    
    44   22   23 am   BACKBONE|DICT|INTERRES
    45   22   86 1    
    46   23   24 2    
    47   23   25 1    
    48   25   26 1    
    49   25   27 1    
    50   25   87 1    
    51   26   88 1    
    52   26   89 1    
    53   26   90 1    
    54   27   28 am   BACKBONE|DICT|INTERRES
    55   27   91 1    
    56   28   29 2    
    57   28   30 1    
    58   30   31 1    
    59   30   32 1    
    60   30   92 1    
    61   31   93 1    
    62   31   94 1    
    63   31   95 1    
    64   32   33 am   BACKBONE|DICT|INTERRES
    65   32   96 1    
    66   33   34 2    
    67   33   35 1    
    68   35   36 1    
    69   35   37 1    
    70   35   97 1    
    71   36   98 1    
    72   36   99 1    
    73   36  100 1    
    74   37   38 am   BACKBONE|DICT|INTERRES
    75   37  101 1    
    76   38   39 2    
    77   38   40 1    
    78   40   41 1    
    79   40   42 1    
    80   40  102 1    
    81   41  103 1    
    82   41  104 1    
    83   41  105 1    
    84   42   43 am   BACKBONE|DICT|INTERRES
    85   42  106 1    
    86   43   44 2    
    87   43   45 1    
    88   45   46 1    
    89   45   49 1    
    90   45  107 1    
    91   46   47 1    
    92   46  108 1    
    93   46  109 1    
    94   47   48 1    
    95   48  110 1    
    96   48  111 1    
    97   49   50 am   BACKBONE|DICT|INTERRES
    98   49  112 1    
    99   50   51 2    
   100   50   52 1    
   101   52   53 1    
   102   52   54 1    
   103   52  113 1    
   104   53  114 1    
   105   53  115 1    
   106   53  116 1    
   107   54   55 am   BACKBONE|DICT|INTERRES
   108   54  117 1    
   109   55   56 2    
   110   55   57 1    
   111   57   58 1    
   112   57   59 1    
   113   57  118 1    
   114   58  119 1    
   115   58  120 1    
   116   58  121 1    
   117   59   60 am   BACKBONE|DICT|INTERRES
   118   59  122 1    
   119   60   61 2    
   120   60   62 1    
   121   62   63 1    
   122   62   64 1    
   123   62  123 1    
   124   63  124 1    
   125   63  125 1    
   126   63  126 1    
   127   64   65 am   BACKBONE|DICT|INTERRES
   128   64  127 1    
   129   65   66 2    
@<TRIPOS>SUBSTRUCTURE
     1 UNK         1 GROUP             0       ****    0 ROOT    
