@<TRIPOS>MOLECULE
3R134
127   129    1
SMALL
USER_CHARGES


@<TRIPOS>ATOM
      1 CA         36.6335  -48.1269  -56.2562 C.3       0 UNK        -0.1968 
      2 C          35.8111  -46.9266  -55.8107 C.2       0 UNK         0.4852 
      3 O          35.0534  -46.3799  -56.6114 O.2       0 UNK        -0.5359 
      4 N          35.9633  -46.5161  -54.5447 N.am      1 UNK        -0.4300 
      5 CA         35.1918  -45.4486  -53.9053 C.3       1 UNK         0.0863 
      6 C6         36.0777  -44.6534  -52.9065 C.3       11 UNK        -0.0953 
      7 S7         35.2554  -43.3614  -51.9088 S.3       11 UNK        -0.2369 
      8 C8         34.5359  -42.2441  -53.1612 C.3       11 UNK         0.0226 
      9 C9         33.1459  -42.6775  -53.6182 C.ar      11 UNK        -0.0699 
     10 C10        32.1566  -42.9904  -52.6782 C.ar      11 UNK        -0.0804 
     11 C11        30.8832  -43.3964  -53.0865 C.ar      11 UNK        -0.0871 
     12 C12        30.5996  -43.4715  -54.4528 C.ar      11 UNK        -0.1008 
     13 C13        31.5686  -43.1470  -55.4059 C.ar      11 UNK        -0.0735 
     14 C14        32.8410  -42.7492  -54.9824 C.ar      11 UNK        -0.0945 
     15 C15        31.2446  -43.2685  -56.8891 C.3       11 UNK         0.0169 
     16 S16        29.8285  -42.2322  -57.3772 S.3       11 UNK        -0.2669 
     17 C17        28.9221  -43.3781  -58.4763 C.3       11 UNK        -0.0850 
     18 CA         27.8912  -44.2691  -57.7163 C.3       10 UNK         0.0855 
     19 C          26.5191  -43.5635  -57.4748 C.2       10 UNK         0.5543 
     20 N          25.3867  -44.2388  -57.6340 N.am      10 UNK        -0.7343 
     21 O          26.4735  -42.3946  -57.1023 O.2       10 UNK        -0.5027 
     22 N          27.7912  -45.6288  -58.2764 N.am      10 UNK        -0.4495 
     23 C          27.4321  -45.9533  -59.5269 C.2       10 UNK         0.4903 
     24 O          27.2179  -45.1361  -60.4216 O.2       10 UNK        -0.4860 
     25 CA         27.2504  -47.4529  -59.8130 C.3       9 UNK         0.0227 
     26 CB         28.5959  -48.1032  -60.1750 C.3       9 UNK        -0.1964 
     27 N          26.6659  -48.1486  -58.6645 N.am      9 UNK        -0.4231 
     28 C          25.3711  -48.1168  -58.3216 C.2       9 UNK         0.5014 
     29 O          24.5080  -47.5547  -58.9976 O.2       9 UNK        -0.5270 
     30 CA         24.9762  -48.7679  -56.9788 C.3       8 UNK         0.0284 
     31 CB         23.5615  -49.3847  -57.0088 C.3       8 UNK        -0.1977 
     32 N          25.9634  -49.7220  -56.4550 N.am      8 UNK        -0.4342 
     33 C          26.3307  -50.9021  -56.9783 C.2       8 UNK         0.5039 
     34 O          25.8366  -51.3794  -58.0004 O.2       8 UNK        -0.5547 
     35 CA         27.4626  -51.6774  -56.2728 C.3       7 UNK         0.0281 
     36 CB         28.6862  -51.7845  -57.1991 C.3       7 UNK        -0.1963 
     37 N          27.8867  -51.0865  -54.9988 N.am      7 UNK        -0.4444 
     38 C          27.2180  -51.1828  -53.8411 C.2       7 UNK         0.5104 
     39 O          26.1920  -51.8475  -53.6970 O.2       7 UNK        -0.5100 
     40 CA         27.7543  -50.3498  -52.6594 C.3       6 UNK         0.0396 
     41 CB         28.8643  -51.1082  -51.9170 C.3       6 UNK        -0.1801 
     42 N          28.2313  -49.0193  -53.0643 N.am      6 UNK        -0.4747 
     43 C          27.4416  -48.0786  -53.6096 C.2       6 UNK         0.5012 
     44 O          26.2289  -48.2240  -53.7629 O.2       6 UNK        -0.5003 
     45 CA         28.0980  -46.7989  -54.1621 C.3       5 UNK         0.0782 
     46 C46        28.0357  -45.6121  -53.1668 C.3       11 UNK        -0.0868 
     47 S47        29.4164  -45.5006  -51.9821 S.3       11 UNK        -0.2515 
     48 C48        29.8165  -43.7223  -52.0477 C.3       11 UNK         0.0199 
     49 N          29.4218  -47.0715  -54.7408 N.am      5 UNK        -0.4607 
     50 C          29.5706  -47.7033  -55.9146 C.2       4 UNK         0.5031 
     51 O          28.6240  -47.9712  -56.6542 O.2       4 UNK        -0.5119 
     52 CA         30.9749  -48.1467  -56.3399 C.3       4 UNK         0.0263 
     53 CB         31.7103  -47.0340  -57.0956 C.3       4 UNK        -0.1967 
     54 N          31.7843  -48.6193  -55.2181 N.am      4 UNK        -0.4237 
     55 C          31.6286  -49.8245  -54.6509 C.2       3 UNK         0.4908 
     56 O          30.7569  -50.6230  -54.9899 O.2       3 UNK        -0.5102 
     57 CA         32.5900  -50.2163  -53.5143 C.3       3 UNK         0.0241 
     58 CB         33.8282  -50.9253  -54.0861 C.3       3 UNK        -0.1971 
     59 N          33.0182  -49.0853  -52.6933 N.am      3 UNK        -0.4139 
     60 C          32.2021  -48.3211  -51.9554 C.2       2 UNK         0.5016 
     61 O          30.9968  -48.5361  -51.8261 O.2       2 UNK        -0.5319 
     62 CA         32.8358  -47.0809  -51.2962 C.3       2 UNK         0.0286 
     63 CB         33.2786  -47.4007  -49.8603 C.3       2 UNK        -0.1963 
     64 N          33.9674  -46.5040  -52.0384 N.am      2 UNK        -0.4790 
     65 C          33.9177  -46.0818  -53.3121 C.2       1 UNK         0.5024 
     66 O          32.9290  -46.2254  -54.0300 O.2       1 UNK        -0.4888 
     67 H67        37.2934  -47.8452  -57.0763 H         1 UNK         0.0892 
     68 H68        37.2471  -48.5263  -55.4489 H         1 UNK         0.0892 
     69 H69        35.9754  -48.9217  -56.6065 H         1 UNK         0.0892 
     70 H70        36.6079  -47.0105  -53.9441 H         1 UNK         0.3107 
     71 H71        34.8629  -44.7462  -54.6729 H         1 UNK         0.0773 
     72 H72        36.5673  -45.3350  -52.2090 H         1 UNK         0.0680 
     73 H73        36.8886  -44.1722  -53.4556 H         1 UNK         0.0680 
     74 H74        35.2223  -42.1595  -54.0050 H         1 UNK         0.0650 
     75 H75        34.4565  -41.2464  -52.7279 H         1 UNK         0.0650 
     76 H76        32.3849  -42.9246  -51.6233 H         1 UNK         0.1397 
     77 H77        29.6220  -43.7781  -54.7884 H         1 UNK         0.1363 
     78 H78        33.5975  -42.5059  -55.7158 H         1 UNK         0.1355 
     79 H79        31.0146  -44.3102  -57.1001 H         1 UNK         0.0707 
     80 H80        32.1062  -43.0091  -57.5062 H         1 UNK         0.0707 
     81 H81        28.4297  -42.8014  -59.2615 H         1 UNK         0.1034 
     82 H82        29.6547  -43.9958  -58.9980 H         1 UNK         0.1034 
     83 H83        28.2837  -44.4443  -56.7143 H         1 UNK         0.0482 
     84 H84        25.3956  -45.1882  -57.9701 H         1 UNK         0.3460 
     85 H85        24.5098  -43.7724  -57.4633 H         1 UNK         0.3460 
     86 H86        27.9597  -46.3894  -57.6268 H         1 UNK         0.2989 
     87 H87        26.5787  -47.5583  -60.6676 H         1 UNK         0.0559 
     88 H88        29.3156  -48.0343  -59.3585 H         1 UNK         0.0848 
     89 H89        29.0417  -47.6175  -61.0440 H         1 UNK         0.0848 
     90 H90        28.4714  -49.1577  -60.4219 H         1 UNK         0.0848 
     91 H91        27.3210  -48.5428  -57.9963 H         1 UNK         0.3144 
     92 H92        24.9537  -47.9498  -56.2577 H         1 UNK         0.0727 
     93 H93        23.2996  -49.8221  -56.0453 H         1 UNK         0.0790 
     94 H94        23.4737  -50.1632  -57.7670 H         1 UNK         0.0790 
     95 H95        22.8087  -48.6282  -57.2340 H         1 UNK         0.0790 
     96 H96        26.4231  -49.4304  -55.6014 H         1 UNK         0.3215 
     97 H97        27.0908  -52.6858  -56.0794 H         1 UNK         0.0863 
     98 H98        29.1023  -50.8032  -57.4300 H         1 UNK         0.0808 
     99 H99        28.4245  -52.2590  -58.1458 H         1 UNK         0.0808 
    100 H100       29.4754  -52.3848  -56.7461 H         1 UNK         0.0808 
    101 H101       28.7803  -50.6022  -55.0019 H         1 UNK         0.3118 
    102 H102       26.9285  -50.2011  -51.9605 H         1 UNK         0.0546 
    103 H103       29.2148  -50.5505  -51.0485 H         1 UNK         0.0828 
    104 H104       29.7216  -51.3014  -52.5602 H         1 UNK         0.0828 
    105 H105       28.5035  -52.0731  -51.5586 H         1 UNK         0.0828 
    106 H106       29.2139  -48.8144  -52.9091 H         1 UNK         0.3005 
    107 H107       27.4485  -46.5009  -54.9892 H         1 UNK         0.1257 
    108 H108       27.1057  -45.6339  -52.5947 H         1 UNK         0.0775 
    109 H109       27.9740  -44.6851  -53.7340 H         1 UNK         0.0775 
    110 H110       28.9173  -43.1363  -52.2426 H         1 UNK         0.0840 
    111 H111       30.1550  -43.4190  -51.0558 H         1 UNK         0.0840 
    112 H112       30.2285  -46.8609  -54.1676 H         1 UNK         0.2987 
    113 H113       30.8459  -48.9761  -57.0388 H         1 UNK         0.0785 
    114 H114       32.6251  -47.4107  -57.5530 H         1 UNK         0.0798 
    115 H115       31.9894  -46.2155  -56.4339 H         1 UNK         0.0798 
    116 H116       31.0934  -46.6248  -57.8968 H         1 UNK         0.0798 
    117 H117       32.4508  -47.9580  -54.8305 H         1 UNK         0.3079 
    118 H118       32.0652  -50.9176  -52.8632 H         1 UNK         0.0794 
    119 H119       33.5393  -51.7904  -54.6850 H         1 UNK         0.0786 
    120 H120       34.4811  -51.2879  -53.2918 H         1 UNK         0.0786 
    121 H121       34.4127  -50.2651  -54.7283 H         1 UNK         0.0786 
    122 H122       33.9933  -48.8294  -52.7344 H         1 UNK         0.3032 
    123 H123       32.0623  -46.3134  -51.2494 H         1 UNK         0.1094 
    124 H124       34.0838  -48.1361  -49.8393 H         1 UNK         0.0794 
    125 H125       33.6248  -46.5057  -49.3429 H         1 UNK         0.0794 
    126 H126       32.4496  -47.8074  -49.2790 H         1 UNK         0.0794 
    127 H127       34.8143  -46.3414  -51.5130 H         1 UNK         0.3016 
@<TRIPOS>BOND
     1    1    2 1    
     2    1   67 1    
     3    1   68 1    
     4    1   69 1    
     5    2    3 2    
     6    2    4 am   BACKBONE|DICT|INTERRES
     7    4    5 1    
     8    4   70 1    
     9    5    6 1    
    10    5   65 1    
    11    5   71 1    
    12    6    7 1    
    13    6   72 1    
    14    6   73 1    
    15    7    8 1    
    16    8    9 1    
    17    8   74 1    
    18    8   75 1    
    19    9   10 ar   
    20    9   14 ar   
    21   10   11 ar   
    22   10   76 1    
    23   11   12 ar   
    24   11   48 1    
    25   12   13 ar   
    26   12   77 1    
    27   13   14 ar   
    28   13   15 1    
    29   14   78 1    
    30   15   16 1    
    31   15   79 1    
    32   15   80 1    
    33   16   17 1    
    34   17   18 1    
    35   17   81 1    
    36   17   82 1    
    37   18   19 1    
    38   18   22 1    
    39   18   83 1    
    40   19   20 am   BACKBONE|DICT|INTERRES
    41   19   21 2    
    42   20   84 1    
    43   20   85 1    
    44   22   23 am   BACKBONE|DICT|INTERRES
    45   22   86 1    
    46   23   24 2    
    47   23   25 1    
    48   25   26 1    
    49   25   27 1    
    50   25   87 1    
    51   26   88 1    
    52   26   89 1    
    53   26   90 1    
    54   27   28 am   BACKBONE|DICT|INTERRES
    55   27   91 1    
    56   28   29 2    
    57   28   30 1    
    58   30   31 1    
    59   30   32 1    
    60   30   92 1    
    61   31   93 1    
    62   31   94 1    
    63   31   95 1    
    64   32   33 am   BACKBONE|DICT|INTERRES
    65   32   96 1    
    66   33   34 2    
    67   33   35 1    
    68   35   36 1    
    69   35   37 1    
    70   35   97 1    
    71   36   98 1    
    72   36   99 1    
    73   36  100 1    
    74   37   38 am   BACKBONE|DICT|INTERRES
    75   37  101 1    
    76   38   39 2    
    77   38   40 1    
    78   40   41 1    
    79   40   42 1    
    80   40  102 1    
    81   41  103 1    
    82   41  104 1    
    83   41  105 1    
    84   42   43 am   BACKBONE|DICT|INTERRES
    85   42  106 1    
    86   43   44 2    
    87   43   45 1    
    88   45   46 1    
    89   45   49 1    
    90   45  107 1    
    91   46   47 1    
    92   46  108 1    
    93   46  109 1    
    94   47   48 1    
    95   48  110 1    
    96   48  111 1    
    97   49   50 am   BACKBONE|DICT|INTERRES
    98   49  112 1    
    99   50   51 2    
   100   50   52 1    
   101   52   53 1    
   102   52   54 1    
   103   52  113 1    
   104   53  114 1    
   105   53  115 1    
   106   53  116 1    
   107   54   55 am   BACKBONE|DICT|INTERRES
   108   54  117 1    
   109   55   56 2    
   110   55   57 1    
   111   57   58 1    
   112   57   59 1    
   113   57  118 1    
   114   58  119 1    
   115   58  120 1    
   116   58  121 1    
   117   59   60 am   BACKBONE|DICT|INTERRES
   118   59  122 1    
   119   60   61 2    
   120   60   62 1    
   121   62   63 1    
   122   62   64 1    
   123   62  123 1    
   124   63  124 1    
   125   63  125 1    
   126   63  126 1    
   127   64   65 am   BACKBONE|DICT|INTERRES
   128   64  127 1    
   129   65   66 2    
@<TRIPOS>SUBSTRUCTURE
     1 UNK         1 GROUP             0       ****    0 ROOT    
