@<TRIPOS>MOLECULE
3R134
127   129    1
SMALL
USER_CHARGES


@<TRIPOS>ATOM
      1 CA         37.0389  -45.0629  -49.0435 C.3       0 UNK        -0.1968 
      2 C          36.8869  -45.1035  -50.5572 C.2       0 UNK         0.4852 
      3 O          37.8634  -44.8805  -51.2750 O.2       0 UNK        -0.5359 
      4 N          35.6704  -45.3784  -51.0459 N.am      1 UNK        -0.4300 
      5 CA         35.3557  -45.5280  -52.4697 C.3       1 UNK         0.0863 
      6 C6         33.8340  -45.3846  -52.7216 C.3       11 UNK        -0.0953 
      7 S7         33.4425  -44.8939  -54.4388 S.3       11 UNK        -0.2369 
      8 C8         32.6836  -43.2519  -54.2120 C.3       11 UNK         0.0226 
      9 C9         31.1894  -43.3454  -53.9280 C.ar      11 UNK        -0.0699 
     10 C10        30.7295  -43.6464  -52.6445 C.ar      11 UNK        -0.0804 
     11 C11        29.3617  -43.7409  -52.3800 C.ar      11 UNK        -0.0871 
     12 C12        28.4412  -43.4979  -53.4040 C.ar      11 UNK        -0.1008 
     13 C13        28.8856  -43.1919  -54.6954 C.ar      11 UNK        -0.0735 
     14 C14        30.2604  -43.1169  -54.9477 C.ar      11 UNK        -0.0945 
     15 C15        27.8967  -42.9116  -55.8206 C.3       11 UNK         0.0169 
     16 S16        26.6747  -44.2477  -56.0410 S.3       11 UNK        -0.2669 
     17 C17        26.2730  -44.0819  -57.8204 C.3       11 UNK        -0.0850 
     18 CA         26.3922  -45.4131  -58.6280 C.3       10 UNK         0.0855 
     19 C          26.1554  -45.2102  -60.1535 C.2       10 UNK         0.5543 
     20 N          25.0472  -44.5860  -60.5311 N.am      10 UNK        -0.7343 
     21 O          26.9431  -45.6195  -61.0046 O.2       10 UNK        -0.5027 
     22 N          27.6003  -46.1939  -58.3209 N.am      10 UNK        -0.4495 
     23 C          28.8732  -45.7799  -58.3744 C.2       10 UNK         0.4903 
     24 O          29.2259  -44.6659  -58.7642 O.2       10 UNK        -0.4860 
     25 CA         29.9402  -46.7551  -57.8446 C.3       9 UNK         0.0227 
     26 CB         30.3627  -46.3200  -56.4321 C.3       9 UNK        -0.1964 
     27 N          29.4764  -48.1481  -57.8114 N.am      9 UNK        -0.4231 
     28 C          29.4803  -48.9540  -58.8847 C.2       9 UNK         0.5014 
     29 O          29.9571  -48.6331  -59.9742 O.2       9 UNK        -0.5270 
     30 CA         28.8365  -50.3482  -58.7462 C.3       8 UNK         0.0284 
     31 CB         29.8754  -51.4096  -58.3505 C.3       8 UNK        -0.1977 
     32 N          27.7015  -50.4200  -57.8229 N.am      8 UNK        -0.4342 
     33 C          26.5614  -49.7294  -57.9420 C.2       8 UNK         0.5039 
     34 O          26.3632  -48.8813  -58.8116 O.2       8 UNK        -0.5547 
     35 CA         25.4599  -49.9956  -56.9127 C.3       7 UNK         0.0281 
     36 CB         25.7067  -51.2090  -55.9918 C.3       7 UNK        -0.1963 
     37 N          25.3353  -48.7932  -56.1046 N.am      7 UNK        -0.4444 
     38 C          24.1933  -48.2308  -55.6996 C.2       7 UNK         0.5104 
     39 O          23.0768  -48.6636  -55.9904 O.2       7 UNK        -0.5100 
     40 CA         24.3201  -46.9628  -54.8282 C.3       6 UNK         0.0396 
     41 CB         23.2184  -46.8801  -53.7511 C.3       6 UNK        -0.1801 
     42 N          25.6507  -46.7711  -54.2283 N.am      6 UNK        -0.4747 
     43 C          26.2773  -47.5875  -53.3675 C.2       6 UNK         0.5012 
     44 O          25.7997  -48.6425  -52.9433 O.2       6 UNK        -0.5003 
     45 CA         27.6637  -47.1362  -52.8709 C.3       5 UNK         0.0782 
     46 C46        27.4986  -46.5242  -51.4556 C.3       11 UNK        -0.0868 
     47 S47        29.0465  -45.9122  -50.7143 S.3       11 UNK        -0.2515 
     48 C48        28.8999  -44.1166  -50.9824 C.3       11 UNK         0.0199 
     49 N          28.6206  -48.2484  -52.8902 N.am      5 UNK        -0.4607 
     50 C          29.0037  -48.9451  -53.9694 C.2       4 UNK         0.5031 
     51 O          28.6100  -48.7293  -55.1207 O.2       4 UNK        -0.5119 
     52 CA         29.9494  -50.1288  -53.7015 C.3       4 UNK         0.0263 
     53 CB         29.1850  -51.4580  -53.8106 C.3       4 UNK        -0.1967 
     54 N          31.0973  -50.1631  -54.6108 N.am      4 UNK        -0.4237 
     55 C          32.1137  -49.2915  -54.5917 C.2       3 UNK         0.4908 
     56 O          32.1844  -48.3351  -53.8176 O.2       3 UNK        -0.5102 
     57 CA         33.2514  -49.5500  -55.5908 C.3       3 UNK         0.0241 
     58 CB         32.8437  -49.2317  -57.0400 C.3       3 UNK        -0.1971 
     59 N          34.4087  -48.7337  -55.2381 N.am      3 UNK        -0.4139 
     60 C          35.6891  -49.0815  -55.4091 C.2       2 UNK         0.5016 
     61 O          36.0420  -50.1634  -55.8815 O.2       2 UNK        -0.5319 
     62 CA         36.7700  -48.0554  -55.0141 C.3       2 UNK         0.0286 
     63 CB         37.5339  -47.5719  -56.2588 C.3       2 UNK        -0.1963 
     64 N          36.2488  -46.8838  -54.3029 N.am      2 UNK        -0.4790 
     65 C          35.9005  -46.8668  -53.0106 C.2       1 UNK         0.5024 
     66 O          35.9721  -47.8525  -52.2721 O.2       1 UNK        -0.4888 
     67 H67        37.7717  -45.8014  -48.7202 H         1 UNK         0.0892 
     68 H68        37.3839  -44.0792  -48.7270 H         1 UNK         0.0892 
     69 H69        36.0993  -45.2725  -48.5332 H         1 UNK         0.0892 
     70 H70        34.9181  -45.5910  -50.4068 H         1 UNK         0.3107 
     71 H71        35.8672  -44.7166  -52.9932 H         1 UNK         0.0773 
     72 H72        33.2956  -46.3018  -52.4759 H         1 UNK         0.0680 
     73 H73        33.4381  -44.6255  -52.0496 H         1 UNK         0.0680 
     74 H74        32.8527  -42.6700  -55.1192 H         1 UNK         0.0650 
     75 H75        33.1890  -42.7099  -53.4114 H         1 UNK         0.0650 
     76 H76        31.4313  -43.8215  -51.8433 H         1 UNK         0.1397 
     77 H77        27.3805  -43.5556  -53.2014 H         1 UNK         0.1363 
     78 H78        30.6111  -42.8788  -55.9427 H         1 UNK         0.1355 
     79 H79        27.3717  -41.9779  -55.6154 H         1 UNK         0.0707 
     80 H80        28.4417  -42.7613  -56.7534 H         1 UNK         0.0707 
     81 H81        25.2562  -43.6926  -57.8859 H         1 UNK         0.1034 
     82 H82        26.9047  -43.3175  -58.2750 H         1 UNK         0.1034 
     83 H83        25.5777  -46.0602  -58.2999 H         1 UNK         0.0482 
     84 H84        24.3696  -44.2612  -59.8598 H         1 UNK         0.3460 
     85 H85        24.8762  -44.4523  -61.5157 H         1 UNK         0.3460 
     86 H86        27.4269  -47.1709  -58.1242 H         1 UNK         0.2989 
     87 H87        30.8157  -46.6867  -58.4936 H         1 UNK         0.0559 
     88 H88        29.5067  -46.2092  -55.7651 H         1 UNK         0.0848 
     89 H89        31.0504  -47.0246  -55.9726 H         1 UNK         0.0848 
     90 H90        30.8733  -45.3583  -56.4673 H         1 UNK         0.0848 
     91 H91        29.0892  -48.4797  -56.9295 H         1 UNK         0.3144 
     92 H92        28.4563  -50.6113  -59.7357 H         1 UNK         0.0727 
     93 H93        29.4742  -52.4162  -58.4705 H         1 UNK         0.0790 
     94 H94        30.1902  -51.3003  -57.3134 H         1 UNK         0.0790 
     95 H95        30.7660  -51.3437  -58.9775 H         1 UNK         0.0790 
     96 H96        27.7798  -51.0739  -57.0585 H         1 UNK         0.3215 
     97 H97        24.5417  -50.1690  -57.4783 H         1 UNK         0.0863 
     98 H98        24.8427  -51.3864  -55.3510 H         1 UNK         0.0808 
     99 H99        26.5650  -51.0576  -55.3371 H         1 UNK         0.0808 
    100 H100       25.8677  -52.1225  -56.5659 H         1 UNK         0.0808 
    101 H101       26.2045  -48.3607  -55.8210 H         1 UNK         0.3118 
    102 H102       24.1757  -46.1221  -55.5082 H         1 UNK         0.0546 
    103 H103       22.2265  -46.8689  -54.2043 H         1 UNK         0.0828 
    104 H104       23.3104  -45.9703  -53.1581 H         1 UNK         0.0828 
    105 H105       23.2527  -47.7307  -53.0698 H         1 UNK         0.0828 
    106 H106       26.1299  -45.9333  -54.5387 H         1 UNK         0.3005 
    107 H107       28.0506  -46.3703  -53.5466 H         1 UNK         0.1257 
    108 H108       27.0885  -47.2679  -50.7688 H         1 UNK         0.0775 
    109 H109       26.7704  -45.7110  -51.4748 H         1 UNK         0.0775 
    110 H110       27.8780  -43.7811  -50.7998 H         1 UNK         0.0840 
    111 H111       29.5193  -43.6016  -50.2463 H         1 UNK         0.0840 
    112 H112       28.9922  -48.5082  -51.9887 H         1 UNK         0.2987 
    113 H113       30.3358  -50.0433  -52.6834 H         1 UNK         0.0785 
    114 H114       28.2992  -51.4552  -53.1734 H         1 UNK         0.0798 
    115 H115       29.8049  -52.2981  -53.4967 H         1 UNK         0.0798 
    116 H116       28.8534  -51.6506  -54.8309 H         1 UNK         0.0798 
    117 H117       31.1163  -50.9169  -55.2804 H         1 UNK         0.3079 
    118 H118       33.5134  -50.6076  -55.5142 H         1 UNK         0.0794 
    119 H119       31.9331  -49.7534  -57.3224 H         1 UNK         0.0786 
    120 H120       33.6190  -49.5396  -57.7418 H         1 UNK         0.0786 
    121 H121       32.6721  -48.1659  -57.1888 H         1 UNK         0.0786 
    122 H122       34.1877  -47.8622  -54.7730 H         1 UNK         0.3032 
    123 H123       37.4757  -48.5736  -54.3606 H         1 UNK         0.1094 
    124 H124       38.3464  -46.8968  -55.9894 H         1 UNK         0.0794 
    125 H125       37.9790  -48.4106  -56.7962 H         1 UNK         0.0794 
    126 H126       36.8785  -47.0497  -56.9569 H         1 UNK         0.0794 
    127 H127       36.1290  -46.0408  -54.8478 H         1 UNK         0.3016 
@<TRIPOS>BOND
     1    1    2 1    
     2    1   67 1    
     3    1   68 1    
     4    1   69 1    
     5    2    3 2    
     6    2    4 am   BACKBONE|DICT|INTERRES
     7    4    5 1    
     8    4   70 1    
     9    5    6 1    
    10    5   65 1    
    11    5   71 1    
    12    6    7 1    
    13    6   72 1    
    14    6   73 1    
    15    7    8 1    
    16    8    9 1    
    17    8   74 1    
    18    8   75 1    
    19    9   10 ar   
    20    9   14 ar   
    21   10   11 ar   
    22   10   76 1    
    23   11   12 ar   
    24   11   48 1    
    25   12   13 ar   
    26   12   77 1    
    27   13   14 ar   
    28   13   15 1    
    29   14   78 1    
    30   15   16 1    
    31   15   79 1    
    32   15   80 1    
    33   16   17 1    
    34   17   18 1    
    35   17   81 1    
    36   17   82 1    
    37   18   19 1    
    38   18   22 1    
    39   18   83 1    
    40   19   20 am   BACKBONE|DICT|INTERRES
    41   19   21 2    
    42   20   84 1    
    43   20   85 1    
    44   22   23 am   BACKBONE|DICT|INTERRES
    45   22   86 1    
    46   23   24 2    
    47   23   25 1    
    48   25   26 1    
    49   25   27 1    
    50   25   87 1    
    51   26   88 1    
    52   26   89 1    
    53   26   90 1    
    54   27   28 am   BACKBONE|DICT|INTERRES
    55   27   91 1    
    56   28   29 2    
    57   28   30 1    
    58   30   31 1    
    59   30   32 1    
    60   30   92 1    
    61   31   93 1    
    62   31   94 1    
    63   31   95 1    
    64   32   33 am   BACKBONE|DICT|INTERRES
    65   32   96 1    
    66   33   34 2    
    67   33   35 1    
    68   35   36 1    
    69   35   37 1    
    70   35   97 1    
    71   36   98 1    
    72   36   99 1    
    73   36  100 1    
    74   37   38 am   BACKBONE|DICT|INTERRES
    75   37  101 1    
    76   38   39 2    
    77   38   40 1    
    78   40   41 1    
    79   40   42 1    
    80   40  102 1    
    81   41  103 1    
    82   41  104 1    
    83   41  105 1    
    84   42   43 am   BACKBONE|DICT|INTERRES
    85   42  106 1    
    86   43   44 2    
    87   43   45 1    
    88   45   46 1    
    89   45   49 1    
    90   45  107 1    
    91   46   47 1    
    92   46  108 1    
    93   46  109 1    
    94   47   48 1    
    95   48  110 1    
    96   48  111 1    
    97   49   50 am   BACKBONE|DICT|INTERRES
    98   49  112 1    
    99   50   51 2    
   100   50   52 1    
   101   52   53 1    
   102   52   54 1    
   103   52  113 1    
   104   53  114 1    
   105   53  115 1    
   106   53  116 1    
   107   54   55 am   BACKBONE|DICT|INTERRES
   108   54  117 1    
   109   55   56 2    
   110   55   57 1    
   111   57   58 1    
   112   57   59 1    
   113   57  118 1    
   114   58  119 1    
   115   58  120 1    
   116   58  121 1    
   117   59   60 am   BACKBONE|DICT|INTERRES
   118   59  122 1    
   119   60   61 2    
   120   60   62 1    
   121   62   63 1    
   122   62   64 1    
   123   62  123 1    
   124   63  124 1    
   125   63  125 1    
   126   63  126 1    
   127   64   65 am   BACKBONE|DICT|INTERRES
   128   64  127 1    
   129   65   66 2    
@<TRIPOS>SUBSTRUCTURE
     1 UNK         1 GROUP             0       ****    0 ROOT    
