@<TRIPOS>MOLECULE
3R134
127   129    1
SMALL
USER_CHARGES


@<TRIPOS>ATOM
      1 CA         31.4584  -46.4159  -55.4972 C.3       0 UNK        -0.1968 
      2 C          32.8576  -46.0486  -55.0344 C.2       0 UNK         0.4852 
      3 O          33.8141  -46.1829  -55.8006 O.2       0 UNK        -0.5359 
      4 N          32.9739  -45.6051  -53.7769 N.am      1 UNK        -0.4300 
      5 CA         34.1876  -45.1854  -53.0678 C.3       1 UNK         0.0863 
      6 C6         34.8294  -43.8838  -53.6435 C.3       11 UNK        -0.0953 
      7 S7         34.8207  -42.5367  -52.4135 S.3       11 UNK        -0.2369 
      8 C8         33.5324  -41.4181  -53.0654 C.3       11 UNK         0.0226 
      9 C9         32.1890  -42.0999  -53.3112 C.ar      11 UNK        -0.0699 
     10 C10        31.5957  -42.8988  -52.3277 C.ar      11 UNK        -0.0804 
     11 C11        30.3814  -43.5471  -52.5739 C.ar      11 UNK        -0.0871 
     12 C12        29.7349  -43.3577  -53.7989 C.ar      11 UNK        -0.1008 
     13 C13        30.3064  -42.5433  -54.7815 C.ar      11 UNK        -0.0735 
     14 C14        31.5343  -41.9232  -54.5341 C.ar      11 UNK        -0.0945 
     15 C15        29.6047  -42.3394  -56.1147 C.3       11 UNK         0.0169 
     16 S16        30.1441  -43.5876  -57.3184 S.3       11 UNK        -0.2669 
     17 C17        29.2443  -43.0916  -58.8279 C.3       11 UNK        -0.0850 
     18 CA         27.6939  -43.1164  -58.7215 C.3       10 UNK         0.0855 
     19 C          27.0690  -42.8403  -60.1180 C.2       10 UNK         0.5543 
     20 N          26.7311  -41.5923  -60.4125 N.am      10 UNK        -0.7343 
     21 O          26.9394  -43.7369  -60.9495 O.2       10 UNK        -0.5027 
     22 N          27.2092  -44.3522  -58.0872 N.am      10 UNK        -0.4495 
     23 C          25.9343  -44.6878  -57.8544 C.2       10 UNK         0.4903 
     24 O          24.9743  -43.9747  -58.1521 O.2       10 UNK        -0.4860 
     25 CA         25.6913  -46.0373  -57.1446 C.3       9 UNK         0.0227 
     26 CB         24.2062  -46.4457  -57.1276 C.3       9 UNK        -0.1964 
     27 N          26.4762  -47.1449  -57.7002 N.am      9 UNK        -0.4231 
     28 C          27.7748  -47.3716  -57.4724 C.2       9 UNK         0.5014 
     29 O          28.4842  -46.6321  -56.7907 O.2       9 UNK        -0.5270 
     30 CA         28.3597  -48.6489  -58.0913 C.3       8 UNK         0.0284 
     31 CB         29.8974  -48.6870  -58.0327 C.3       8 UNK        -0.1977 
     32 N          27.8366  -49.8116  -57.3816 N.am      8 UNK        -0.4342 
     33 C          26.6872  -50.4368  -57.6610 C.2       8 UNK         0.5039 
     34 O          25.9383  -50.1105  -58.5832 O.2       8 UNK        -0.5547 
     35 CA         26.2979  -51.5940  -56.7338 C.3       7 UNK         0.0281 
     36 CB         27.2842  -52.7681  -56.8651 C.3       7 UNK        -0.1963 
     37 N          26.2689  -51.1321  -55.3469 N.am      7 UNK        -0.4444 
     38 C          25.1578  -50.8082  -54.6715 C.2       7 UNK         0.5104 
     39 O          24.0189  -50.9205  -55.1261 O.2       7 UNK        -0.5100 
     40 CA         25.3391  -50.2736  -53.2375 C.3       6 UNK         0.0396 
     41 CB         25.1815  -51.4135  -52.2186 C.3       6 UNK        -0.1801 
     42 N          26.6292  -49.6131  -53.0238 N.am      6 UNK        -0.4747 
     43 C          26.9850  -48.4392  -53.5674 C.2       6 UNK         0.5012 
     44 O          26.2176  -47.7433  -54.2295 O.2       6 UNK        -0.5003 
     45 CA         28.4373  -47.9633  -53.3395 C.3       5 UNK         0.0782 
     46 C46        28.4592  -46.8653  -52.2459 C.3       11 UNK        -0.0868 
     47 S47        30.1282  -46.2109  -51.8974 S.3       11 UNK        -0.2515 
     48 C48        29.7792  -44.4618  -51.5198 C.3       11 UNK         0.0199 
     49 N          29.3775  -49.0583  -53.0477 N.am      5 UNK        -0.4607 
     50 C          29.6578  -50.0842  -53.8614 C.2       4 UNK         0.5031 
     51 O          29.0979  -50.2789  -54.9420 O.2       4 UNK        -0.5119 
     52 CA         30.7302  -51.0762  -53.3887 C.3       4 UNK         0.0263 
     53 CB         30.1817  -52.5135  -53.3847 C.3       4 UNK        -0.1967 
     54 N          31.9025  -51.0029  -54.2607 N.am      4 UNK        -0.4237 
     55 C          32.7553  -49.9711  -54.2781 C.2       3 UNK         0.4908 
     56 O          32.6870  -49.0219  -53.4938 O.2       3 UNK        -0.5102 
     57 CA         33.8383  -49.9974  -55.3695 C.3       3 UNK         0.0241 
     58 CB         33.2253  -49.7409  -56.7575 C.3       3 UNK        -0.1971 
     59 N          34.8435  -48.9684  -55.1097 N.am      3 UNK        -0.4139 
     60 C          35.9460  -49.1386  -54.3680 C.2       2 UNK         0.5016 
     61 O          36.3205  -50.2272  -53.9296 O.2       2 UNK        -0.5319 
     62 CA         36.7653  -47.8753  -54.0516 C.3       2 UNK         0.0286 
     63 CB         37.8448  -47.6470  -55.1216 C.3       2 UNK        -0.1963 
     64 N          35.9114  -46.6891  -53.9662 N.am      2 UNK        -0.4790 
     65 C          35.1901  -46.3456  -52.8912 C.2       1 UNK         0.5024 
     66 O          35.2801  -46.9116  -51.8007 O.2       1 UNK        -0.4888 
     67 H67        31.3832  -46.3512  -56.5821 H         1 UNK         0.0892 
     68 H68        31.2119  -47.4321  -55.1948 H         1 UNK         0.0892 
     69 H69        30.7115  -45.7452  -55.0739 H         1 UNK         0.0892 
     70 H70        32.1332  -45.5664  -53.2143 H         1 UNK         0.3107 
     71 H71        33.8272  -44.9775  -52.0591 H         1 UNK         0.0773 
     72 H72        35.8661  -44.0264  -53.9530 H         1 UNK         0.0680 
     73 H73        34.3112  -43.5491  -54.5435 H         1 UNK         0.0680 
     74 H74        33.9080  -40.9656  -53.9846 H         1 UNK         0.0650 
     75 H75        33.3868  -40.6015  -52.3574 H         1 UNK         0.0650 
     76 H76        32.0968  -43.0370  -51.3794 H         1 UNK         0.1397 
     77 H77        28.7961  -43.8581  -53.9950 H         1 UNK         0.1363 
     78 H78        31.9814  -41.3050  -55.3007 H         1 UNK         0.1355 
     79 H79        28.5246  -42.4044  -55.9766 H         1 UNK         0.0707 
     80 H80        29.8122  -41.3412  -56.5035 H         1 UNK         0.0707 
     81 H81        29.5859  -42.0960  -59.1177 H         1 UNK         0.1034 
     82 H82        29.5754  -43.7620  -59.6239 H         1 UNK         0.1034 
     83 H83        27.3889  -42.3037  -58.0603 H         1 UNK         0.0482 
     84 H84        26.3415  -41.3919  -61.3205 H         1 UNK         0.3460 
     85 H85        26.8438  -40.8479  -59.7419 H         1 UNK         0.3460 
     86 H86        27.9267  -44.9901  -57.7560 H         1 UNK         0.2989 
     87 H87        25.9987  -45.8903  -56.1077 H         1 UNK         0.0559 
     88 H88        23.8173  -46.5966  -58.1352 H         1 UNK         0.0848 
     89 H89        23.5930  -45.6803  -56.6501 H         1 UNK         0.0848 
     90 H90        24.0579  -47.3688  -56.5661 H         1 UNK         0.0848 
     91 H91        25.9748  -47.8238  -58.2599 H         1 UNK         0.3144 
     92 H92        28.0617  -48.6849  -59.1414 H         1 UNK         0.0727 
     93 H93        30.3311  -47.8082  -58.5116 H         1 UNK         0.0790 
     94 H94        30.2909  -49.5648  -58.5451 H         1 UNK         0.0790 
     95 H95        30.2569  -48.7138  -57.0043 H         1 UNK         0.0790 
     96 H96        28.3548  -50.0883  -56.5481 H         1 UNK         0.3215 
     97 H97        25.3109  -51.9502  -57.0375 H         1 UNK         0.0863 
     98 H98        28.2942  -52.4948  -56.5572 H         1 UNK         0.0808 
     99 H99        27.3401  -53.1160  -57.8974 H         1 UNK         0.0808 
    100 H100       26.9697  -53.6151  -56.2551 H         1 UNK         0.0808 
    101 H101       27.1669  -50.9470  -54.9144 H         1 UNK         0.3118 
    102 H102       24.5487  -49.5422  -53.0555 H         1 UNK         0.0546 
    103 H103       25.9530  -52.1750  -52.3398 H         1 UNK         0.0828 
    104 H104       24.2159  -51.9081  -52.3339 H         1 UNK         0.0828 
    105 H105       25.2319  -51.0421  -51.1950 H         1 UNK         0.0828 
    106 H106       27.3133  -50.1085  -52.4704 H         1 UNK         0.3005 
    107 H107       28.7609  -47.5106  -54.2793 H         1 UNK         0.1257 
    108 H108       28.0489  -47.2465  -51.3085 H         1 UNK         0.0775 
    109 H109       27.8120  -46.0402  -52.5496 H         1 UNK         0.0775 
    110 H110       28.7072  -44.2790  -51.4368 H         1 UNK         0.0840 
    111 H111       30.1939  -44.2310  -50.5373 H         1 UNK         0.0840 
    112 H112       29.9138  -48.9523  -52.1981 H         1 UNK         0.2987 
    113 H113       31.0332  -50.8239  -52.3700 H         1 UNK         0.0785 
    114 H114       29.3049  -52.5951  -52.7410 H         1 UNK         0.0798 
    115 H115       30.9235  -53.2191  -53.0102 H         1 UNK         0.0798 
    116 H116       29.8839  -52.8394  -54.3824 H         1 UNK         0.0798 
    117 H117       31.9971  -51.7314  -54.9535 H         1 UNK         0.3079 
    118 H118       34.3076  -50.9836  -55.3673 H         1 UNK         0.0794 
    119 H119       32.4618  -50.4806  -57.0017 H         1 UNK         0.0786 
    120 H120       33.9846  -49.7946  -57.5379 H         1 UNK         0.0786 
    121 H121       32.7593  -48.7573  -56.8184 H         1 UNK         0.0786 
    122 H122       34.5853  -48.0217  -55.3685 H         1 UNK         0.3032 
    123 H123       37.2608  -48.0316  -53.0904 H         1 UNK         0.1094 
    124 H124       38.5071  -48.5107  -55.1969 H         1 UNK         0.0794 
    125 H125       37.4094  -47.4824  -56.1082 H         1 UNK         0.0794 
    126 H126       38.4654  -46.7838  -54.8802 H         1 UNK         0.0794 
    127 H127       35.6886  -46.2166  -54.8355 H         1 UNK         0.3016 
@<TRIPOS>BOND
     1    1    2 1    
     2    1   67 1    
     3    1   68 1    
     4    1   69 1    
     5    2    3 2    
     6    2    4 am   BACKBONE|DICT|INTERRES
     7    4    5 1    
     8    4   70 1    
     9    5    6 1    
    10    5   65 1    
    11    5   71 1    
    12    6    7 1    
    13    6   72 1    
    14    6   73 1    
    15    7    8 1    
    16    8    9 1    
    17    8   74 1    
    18    8   75 1    
    19    9   10 ar   
    20    9   14 ar   
    21   10   11 ar   
    22   10   76 1    
    23   11   12 ar   
    24   11   48 1    
    25   12   13 ar   
    26   12   77 1    
    27   13   14 ar   
    28   13   15 1    
    29   14   78 1    
    30   15   16 1    
    31   15   79 1    
    32   15   80 1    
    33   16   17 1    
    34   17   18 1    
    35   17   81 1    
    36   17   82 1    
    37   18   19 1    
    38   18   22 1    
    39   18   83 1    
    40   19   20 am   BACKBONE|DICT|INTERRES
    41   19   21 2    
    42   20   84 1    
    43   20   85 1    
    44   22   23 am   BACKBONE|DICT|INTERRES
    45   22   86 1    
    46   23   24 2    
    47   23   25 1    
    48   25   26 1    
    49   25   27 1    
    50   25   87 1    
    51   26   88 1    
    52   26   89 1    
    53   26   90 1    
    54   27   28 am   BACKBONE|DICT|INTERRES
    55   27   91 1    
    56   28   29 2    
    57   28   30 1    
    58   30   31 1    
    59   30   32 1    
    60   30   92 1    
    61   31   93 1    
    62   31   94 1    
    63   31   95 1    
    64   32   33 am   BACKBONE|DICT|INTERRES
    65   32   96 1    
    66   33   34 2    
    67   33   35 1    
    68   35   36 1    
    69   35   37 1    
    70   35   97 1    
    71   36   98 1    
    72   36   99 1    
    73   36  100 1    
    74   37   38 am   BACKBONE|DICT|INTERRES
    75   37  101 1    
    76   38   39 2    
    77   38   40 1    
    78   40   41 1    
    79   40   42 1    
    80   40  102 1    
    81   41  103 1    
    82   41  104 1    
    83   41  105 1    
    84   42   43 am   BACKBONE|DICT|INTERRES
    85   42  106 1    
    86   43   44 2    
    87   43   45 1    
    88   45   46 1    
    89   45   49 1    
    90   45  107 1    
    91   46   47 1    
    92   46  108 1    
    93   46  109 1    
    94   47   48 1    
    95   48  110 1    
    96   48  111 1    
    97   49   50 am   BACKBONE|DICT|INTERRES
    98   49  112 1    
    99   50   51 2    
   100   50   52 1    
   101   52   53 1    
   102   52   54 1    
   103   52  113 1    
   104   53  114 1    
   105   53  115 1    
   106   53  116 1    
   107   54   55 am   BACKBONE|DICT|INTERRES
   108   54  117 1    
   109   55   56 2    
   110   55   57 1    
   111   57   58 1    
   112   57   59 1    
   113   57  118 1    
   114   58  119 1    
   115   58  120 1    
   116   58  121 1    
   117   59   60 am   BACKBONE|DICT|INTERRES
   118   59  122 1    
   119   60   61 2    
   120   60   62 1    
   121   62   63 1    
   122   62   64 1    
   123   62  123 1    
   124   63  124 1    
   125   63  125 1    
   126   63  126 1    
   127   64   65 am   BACKBONE|DICT|INTERRES
   128   64  127 1    
   129   65   66 2    
@<TRIPOS>SUBSTRUCTURE
     1 UNK         1 GROUP             0       ****    0 ROOT    
