@<TRIPOS>MOLECULE
3R134
127   129    1
SMALL
USER_CHARGES


@<TRIPOS>ATOM
      1 CA         29.9174  -47.6456  -48.7658 C.3       0 UNK        -0.1968 
      2 C          31.0881  -47.3182  -49.6802 C.2       0 UNK         0.4852 
      3 O          31.2904  -48.0121  -50.6779 O.2       0 UNK        -0.5359 
      4 N          31.8578  -46.2709  -49.3453 N.am      1 UNK        -0.4300 
      5 CA         33.0300  -45.7803  -50.0812 C.3       1 UNK         0.0863 
      6 C6         32.6317  -45.1139  -51.4304 C.3       11 UNK        -0.0953 
      7 S7         33.8619  -43.9021  -52.0088 S.3       11 UNK        -0.2369 
      8 C8         32.8019  -42.6004  -52.7285 C.3       11 UNK         0.0226 
      9 C9         32.1532  -43.0106  -54.0482 C.ar      11 UNK        -0.0699 
     10 C10        32.9425  -43.4735  -55.1073 C.ar      11 UNK        -0.0804 
     11 C11        32.3606  -43.8198  -56.3296 C.ar      11 UNK        -0.0871 
     12 C12        30.9820  -43.6921  -56.4892 C.ar      11 UNK        -0.1008 
     13 C13        30.1736  -43.2321  -55.4489 C.ar      11 UNK        -0.0735 
     14 C14        30.7684  -42.8902  -54.2274 C.ar      11 UNK        -0.0945 
     15 C15        28.6600  -43.1543  -55.6296 C.3       11 UNK         0.0169 
     16 S16        28.1298  -41.9586  -56.9010 S.3       11 UNK        -0.2669 
     17 C17        27.9928  -42.9785  -58.4183 C.3       11 UNK        -0.0850 
     18 CA         26.5767  -43.5713  -58.6299 C.3       10 UNK         0.0855 
     19 C          26.4164  -44.1257  -60.0683 C.2       10 UNK         0.5543 
     20 N          25.7334  -43.3995  -60.9421 N.am      10 UNK        -0.7343 
     21 O          26.9421  -45.1834  -60.4095 O.2       10 UNK        -0.5027 
     22 N          26.2995  -44.6318  -57.6553 N.am      10 UNK        -0.4495 
     23 C          25.1002  -44.8757  -57.1181 C.2       10 UNK         0.4903 
     24 O          24.0908  -44.2098  -57.3568 O.2       10 UNK        -0.4860 
     25 CA         25.0337  -46.0574  -56.1344 C.3       9 UNK         0.0227 
     26 CB         23.6123  -46.3240  -55.5944 C.3       9 UNK        -0.1964 
     27 N          25.6250  -47.2827  -56.6801 N.am      9 UNK        -0.4231 
     28 C          25.2265  -47.9935  -57.7471 C.2       9 UNK         0.5014 
     29 O          24.2704  -47.6893  -58.4614 O.2       9 UNK        -0.5270 
     30 CA         26.0229  -49.2744  -58.0778 C.3       8 UNK         0.0284 
     31 CB         26.8701  -49.0634  -59.3436 C.3       8 UNK        -0.1977 
     32 N          26.9002  -49.7214  -56.9910 N.am      8 UNK        -0.4342 
     33 C          26.4956  -50.2314  -55.8183 C.2       8 UNK         0.5039 
     34 O          25.3263  -50.5152  -55.5591 O.2       8 UNK        -0.5547 
     35 CA         27.5725  -50.3747  -54.7282 C.3       7 UNK         0.0281 
     36 CB         28.3043  -51.7228  -54.8304 C.3       7 UNK        -0.1963 
     37 N          28.5328  -49.2660  -54.7868 N.am      7 UNK        -0.4444 
     38 C          28.2610  -48.0253  -54.3560 C.2       7 UNK         0.5104 
     39 O          27.2219  -47.7240  -53.7707 O.2       7 UNK        -0.5100 
     40 CA         29.2732  -46.9157  -54.6735 C.3       6 UNK         0.0396 
     41 CB         30.1612  -46.6146  -53.4671 C.3       6 UNK        -0.1801 
     42 N          30.1140  -47.2147  -55.8330 N.am      6 UNK        -0.4747 
     43 C          29.7602  -46.9765  -57.1038 C.2       6 UNK         0.5012 
     44 O          28.7032  -46.4250  -57.4178 O.2       6 UNK        -0.5003 
     45 CA         30.7096  -47.4898  -58.2127 C.3       5 UNK         0.0782 
     46 C46        31.6862  -46.3975  -58.7243 C.3       11 UNK        -0.0868 
     47 S47        33.1492  -46.1279  -57.6504 S.3       11 UNK        -0.2515 
     48 C48        33.2161  -44.3161  -57.4852 C.3       11 UNK         0.0199 
     49 N          31.4338  -48.7091  -57.8407 N.am      5 UNK        -0.4607 
     50 C          30.8901  -49.8734  -57.4753 C.2       4 UNK         0.5031 
     51 O          29.6781  -50.0835  -57.4748 O.2       4 UNK        -0.5119 
     52 CA         31.8473  -50.9621  -56.9559 C.3       4 UNK         0.0263 
     53 CB         33.2903  -50.8215  -57.4915 C.3       4 UNK        -0.1967 
     54 N          31.8548  -51.0402  -55.4872 N.am      4 UNK        -0.4237 
     55 C          32.1148  -50.0491  -54.6182 C.2       3 UNK         0.4908 
     56 O          32.3279  -48.8827  -54.9555 O.2       3 UNK        -0.5102 
     57 CA         32.0915  -50.3939  -53.1144 C.3       3 UNK         0.0241 
     58 CB         32.2490  -51.9002  -52.8031 C.3       3 UNK        -0.1971 
     59 N          33.0645  -49.5914  -52.3608 N.am      3 UNK        -0.4139 
     60 C          34.4012  -49.5861  -52.5113 C.2       2 UNK         0.5016 
     61 O          35.0077  -50.3597  -53.2551 O.2       2 UNK        -0.5319 
     62 CA         35.1999  -48.5378  -51.7100 C.3       2 UNK         0.0286 
     63 CB         36.4627  -48.0696  -52.4581 C.3       2 UNK        -0.1963 
     64 N          34.3716  -47.3699  -51.4103 N.am      2 UNK        -0.4790 
     65 C          34.0983  -46.8962  -50.1890 C.2       1 UNK         0.5024 
     66 O          34.6178  -47.3273  -49.1575 O.2       1 UNK        -0.4888 
     67 H67        30.0277  -48.6521  -48.3634 H         1 UNK         0.0892 
     68 H68        29.8445  -46.9507  -47.9295 H         1 UNK         0.0892 
     69 H69        28.9836  -47.6026  -49.3257 H         1 UNK         0.0892 
     70 H70        31.6537  -45.7713  -48.4909 H         1 UNK         0.3107 
     71 H71        33.4649  -45.0092  -49.4429 H         1 UNK         0.0773 
     72 H72        32.4607  -45.8483  -52.2143 H         1 UNK         0.0680 
     73 H73        31.6815  -44.5913  -51.3093 H         1 UNK         0.0680 
     74 H74        33.4159  -41.7172  -52.9083 H         1 UNK         0.0650 
     75 H75        32.0499  -42.3041  -51.9955 H         1 UNK         0.0650 
     76 H76        34.0124  -43.5624  -54.9773 H         1 UNK         0.1397 
     77 H77        30.5412  -43.9636  -57.4304 H         1 UNK         0.1363 
     78 H78        30.1524  -42.5334  -53.4135 H         1 UNK         0.1355 
     79 H79        28.2746  -44.1374  -55.8868 H         1 UNK         0.0707 
     80 H80        28.1826  -42.8812  -54.6875 H         1 UNK         0.0707 
     81 H81        28.2564  -42.3271  -59.2541 H         1 UNK         0.1034 
     82 H82        28.7280  -43.7796  -58.4281 H         1 UNK         0.1034 
     83 H83        25.8571  -42.7609  -58.4944 H         1 UNK         0.0482 
     84 H84        25.3060  -42.5264  -60.6739 H         1 UNK         0.3460 
     85 H85        25.6327  -43.7368  -61.8867 H         1 UNK         0.3460 
     86 H86        27.0618  -45.2816  -57.4864 H         1 UNK         0.2989 
     87 H87        25.6560  -45.7768  -55.2833 H         1 UNK         0.0559 
     88 H88        22.9138  -46.5756  -56.3931 H         1 UNK         0.0848 
     89 H89        23.2178  -45.4445  -55.0841 H         1 UNK         0.0848 
     90 H90        23.6096  -47.1434  -54.8756 H         1 UNK         0.0848 
     91 H91        26.4316  -47.6287  -56.1815 H         1 UNK         0.3144 
     92 H92        25.2997  -50.0683  -58.2748 H         1 UNK         0.0727 
     93 H93        27.4234  -49.9644  -59.6094 H         1 UNK         0.0790 
     94 H94        27.5875  -48.2523  -59.2160 H         1 UNK         0.0790 
     95 H95        26.2401  -48.8051  -60.1958 H         1 UNK         0.0790 
     96 H96        27.9021  -49.6363  -57.1514 H         1 UNK         0.3215 
     97 H97        27.0683  -50.3439  -53.7594 H         1 UNK         0.0863 
     98 H98        29.0456  -51.8312  -54.0391 H         1 UNK         0.0808 
     99 H99        28.8096  -51.8485  -55.7874 H         1 UNK         0.0808 
    100 H100       27.6010  -52.5503  -54.7281 H         1 UNK         0.0808 
    101 H101       29.3704  -49.4134  -55.3325 H         1 UNK         0.3118 
    102 H102       28.6924  -46.0176  -54.8738 H         1 UNK         0.0546 
    103 H103       30.8151  -47.4516  -53.2259 H         1 UNK         0.0828 
    104 H104       30.7822  -45.7441  -53.6719 H         1 UNK         0.0828 
    105 H105       29.5676  -46.3921  -52.5796 H         1 UNK         0.0828 
    106 H106       31.0065  -47.6698  -55.6495 H         1 UNK         0.3005 
    107 H107       30.0590  -47.7600  -59.0474 H         1 UNK         0.1257 
    108 H108       31.1616  -45.4618  -58.9162 H         1 UNK         0.0775 
    109 H109       32.0703  -46.7034  -59.6987 H         1 UNK         0.0775 
    110 H110       34.2556  -44.0232  -57.3303 H         1 UNK         0.0840 
    111 H111       32.9081  -43.8410  -58.4178 H         1 UNK         0.0840 
    112 H112       32.4327  -48.5979  -57.7373 H         1 UNK         0.2987 
    113 H113       31.4514  -51.9116  -57.3198 H         1 UNK         0.0785 
    114 H114       33.3028  -50.7534  -58.5803 H         1 UNK         0.0798 
    115 H115       33.8908  -51.6896  -57.2197 H         1 UNK         0.0798 
    116 H116       33.7978  -49.9403  -57.0968 H         1 UNK         0.0798 
    117 H117       31.6683  -51.9566  -55.1049 H         1 UNK         0.3079 
    118 H118       31.1102  -50.0838  -52.7518 H         1 UNK         0.0794 
    119 H119       33.1620  -52.3144  -53.2328 H         1 UNK         0.0786 
    120 H120       31.4081  -52.4789  -53.1862 H         1 UNK         0.0786 
    121 H121       32.2840  -52.0742  -51.7275 H         1 UNK         0.0786 
    122 H122       32.6467  -48.9161  -51.7239 H         1 UNK         0.3032 
    123 H123       35.5110  -49.0324  -50.7872 H         1 UNK         0.1094 
    124 H124       37.1423  -48.9022  -52.6446 H         1 UNK         0.0794 
    125 H125       36.2156  -47.6251  -53.4230 H         1 UNK         0.0794 
    126 H126       37.0140  -47.3289  -51.8787 H         1 UNK         0.0794 
    127 H127       33.8956  -46.9547  -52.1997 H         1 UNK         0.3016 
@<TRIPOS>BOND
     1    1    2 1    
     2    1   67 1    
     3    1   68 1    
     4    1   69 1    
     5    2    3 2    
     6    2    4 am   BACKBONE|DICT|INTERRES
     7    4    5 1    
     8    4   70 1    
     9    5    6 1    
    10    5   65 1    
    11    5   71 1    
    12    6    7 1    
    13    6   72 1    
    14    6   73 1    
    15    7    8 1    
    16    8    9 1    
    17    8   74 1    
    18    8   75 1    
    19    9   10 ar   
    20    9   14 ar   
    21   10   11 ar   
    22   10   76 1    
    23   11   12 ar   
    24   11   48 1    
    25   12   13 ar   
    26   12   77 1    
    27   13   14 ar   
    28   13   15 1    
    29   14   78 1    
    30   15   16 1    
    31   15   79 1    
    32   15   80 1    
    33   16   17 1    
    34   17   18 1    
    35   17   81 1    
    36   17   82 1    
    37   18   19 1    
    38   18   22 1    
    39   18   83 1    
    40   19   20 am   BACKBONE|DICT|INTERRES
    41   19   21 2    
    42   20   84 1    
    43   20   85 1    
    44   22   23 am   BACKBONE|DICT|INTERRES
    45   22   86 1    
    46   23   24 2    
    47   23   25 1    
    48   25   26 1    
    49   25   27 1    
    50   25   87 1    
    51   26   88 1    
    52   26   89 1    
    53   26   90 1    
    54   27   28 am   BACKBONE|DICT|INTERRES
    55   27   91 1    
    56   28   29 2    
    57   28   30 1    
    58   30   31 1    
    59   30   32 1    
    60   30   92 1    
    61   31   93 1    
    62   31   94 1    
    63   31   95 1    
    64   32   33 am   BACKBONE|DICT|INTERRES
    65   32   96 1    
    66   33   34 2    
    67   33   35 1    
    68   35   36 1    
    69   35   37 1    
    70   35   97 1    
    71   36   98 1    
    72   36   99 1    
    73   36  100 1    
    74   37   38 am   BACKBONE|DICT|INTERRES
    75   37  101 1    
    76   38   39 2    
    77   38   40 1    
    78   40   41 1    
    79   40   42 1    
    80   40  102 1    
    81   41  103 1    
    82   41  104 1    
    83   41  105 1    
    84   42   43 am   BACKBONE|DICT|INTERRES
    85   42  106 1    
    86   43   44 2    
    87   43   45 1    
    88   45   46 1    
    89   45   49 1    
    90   45  107 1    
    91   46   47 1    
    92   46  108 1    
    93   46  109 1    
    94   47   48 1    
    95   48  110 1    
    96   48  111 1    
    97   49   50 am   BACKBONE|DICT|INTERRES
    98   49  112 1    
    99   50   51 2    
   100   50   52 1    
   101   52   53 1    
   102   52   54 1    
   103   52  113 1    
   104   53  114 1    
   105   53  115 1    
   106   53  116 1    
   107   54   55 am   BACKBONE|DICT|INTERRES
   108   54  117 1    
   109   55   56 2    
   110   55   57 1    
   111   57   58 1    
   112   57   59 1    
   113   57  118 1    
   114   58  119 1    
   115   58  120 1    
   116   58  121 1    
   117   59   60 am   BACKBONE|DICT|INTERRES
   118   59  122 1    
   119   60   61 2    
   120   60   62 1    
   121   62   63 1    
   122   62   64 1    
   123   62  123 1    
   124   63  124 1    
   125   63  125 1    
   126   63  126 1    
   127   64   65 am   BACKBONE|DICT|INTERRES
   128   64  127 1    
   129   65   66 2    
@<TRIPOS>SUBSTRUCTURE
     1 UNK         1 GROUP             0       ****    0 ROOT    
