@<TRIPOS>MOLECULE
3R134
127   129    1
SMALL
USER_CHARGES


@<TRIPOS>ATOM
      1 CA         30.6277  -47.2008  -56.9680 C.3       0 UNK        -0.1968 
      2 C          31.5671  -47.0269  -55.7890 C.2       0 UNK         0.4852 
      3 O          31.4384  -47.7408  -54.7941 O.2       0 UNK        -0.5359 
      4 N          32.5119  -46.0833  -55.8897 N.am      1 UNK        -0.4300 
      5 CA         33.4609  -45.7226  -54.8292 C.3       1 UNK         0.0863 
      6 C6         34.2681  -44.4420  -55.1612 C.3       11 UNK        -0.0953 
      7 S7         33.2344  -43.0504  -55.7355 S.3       11 UNK        -0.2369 
      8 C8         32.4572  -42.4968  -54.1876 C.3       11 UNK         0.0226 
      9 C9         30.9399  -42.5628  -54.2808 C.ar      11 UNK        -0.0699 
     10 C10        30.2676  -43.7618  -54.0365 C.ar      11 UNK        -0.0804 
     11 C11        28.8718  -43.8182  -54.0719 C.ar      11 UNK        -0.0871 
     12 C12        28.1443  -42.6623  -54.3755 C.ar      11 UNK        -0.1008 
     13 C13        28.8043  -41.4595  -54.6512 C.ar      11 UNK        -0.0735 
     14 C14        30.2027  -41.4174  -54.5897 C.ar      11 UNK        -0.0945 
     15 C15        28.0047  -40.1970  -54.9603 C.3       11 UNK         0.0169 
     16 S16        28.6688  -39.2619  -56.3797 S.3       11 UNK        -0.2669 
     17 C17        27.7785  -39.9706  -57.8116 C.3       11 UNK        -0.0850 
     18 CA         28.3847  -41.2490  -58.4567 C.3       10 UNK         0.0855 
     19 C          29.9068  -41.1483  -58.7664 C.2       10 UNK         0.5543 
     20 N          30.7497  -42.0204  -58.2275 N.am      10 UNK        -0.7343 
     21 O          30.3224  -40.2781  -59.5277 O.2       10 UNK        -0.5027 
     22 N          27.9806  -42.4593  -57.7243 N.am      10 UNK        -0.4495 
     23 C          27.6786  -43.6267  -58.3050 C.2       10 UNK         0.4903 
     24 O          27.7546  -43.8383  -59.5188 O.2       10 UNK        -0.4860 
     25 CA         27.1677  -44.7358  -57.3772 C.3       9 UNK         0.0227 
     26 CB         25.7843  -44.3725  -56.7954 C.3       9 UNK        -0.1964 
     27 N          27.0916  -45.9804  -58.1377 N.am      9 UNK        -0.4231 
     28 C          26.8964  -47.2099  -57.6491 C.2       9 UNK         0.5014 
     29 O          26.7311  -47.4453  -56.4493 O.2       9 UNK        -0.5270 
     30 CA         26.8459  -48.3470  -58.6953 C.3       8 UNK         0.0284 
     31 CB         28.0382  -48.3013  -59.6786 C.3       8 UNK        -0.1977 
     32 N          26.7108  -49.6902  -58.1116 N.am      8 UNK        -0.4342 
     33 C          27.5832  -50.3226  -57.3151 C.2       8 UNK         0.5039 
     34 O          28.6805  -49.8731  -56.9732 O.2       8 UNK        -0.5547 
     35 CA         27.1701  -51.7101  -56.8151 C.3       7 UNK         0.0281 
     36 CB         27.7363  -52.8226  -57.7140 C.3       7 UNK        -0.1963 
     37 N          27.7055  -51.8345  -55.4689 N.am      7 UNK        -0.4444 
     38 C          27.1673  -52.5220  -54.4579 C.2       7 UNK         0.5104 
     39 O          26.2125  -53.2906  -54.5777 O.2       7 UNK        -0.5100 
     40 CA         27.7834  -52.2825  -53.0664 C.3       6 UNK         0.0396 
     41 CB         28.8250  -53.3656  -52.7489 C.3       6 UNK        -0.1801 
     42 N          28.3875  -50.9478  -52.9341 N.am      6 UNK        -0.4747 
     43 C          27.6788  -49.8040  -52.9199 C.2       6 UNK         0.5012 
     44 O          26.4466  -49.7889  -52.9349 O.2       6 UNK        -0.5003 
     45 CA         28.4427  -48.4589  -52.9283 C.3       5 UNK         0.0782 
     46 C46        27.6843  -47.3554  -52.1338 C.3       11 UNK        -0.0868 
     47 S47        28.5307  -45.7406  -52.1114 S.3       11 UNK        -0.2515 
     48 C48        28.1623  -45.1344  -53.7864 C.3       11 UNK         0.0199 
     49 N          29.8636  -48.5846  -52.5828 N.am      5 UNK        -0.4607 
     50 C          30.3880  -48.9132  -51.3944 C.2       4 UNK         0.5031 
     51 O          29.7179  -49.1525  -50.3886 O.2       4 UNK        -0.5119 
     52 CA         31.9279  -49.0178  -51.3453 C.3       4 UNK         0.0263 
     53 CB         32.4415  -49.7830  -50.1073 C.3       4 UNK        -0.1967 
     54 N          32.4955  -49.5811  -52.5787 N.am      4 UNK        -0.4237 
     55 C          32.2085  -50.7740  -53.1265 C.2       3 UNK         0.4908 
     56 O          31.4682  -51.6018  -52.5979 O.2       3 UNK        -0.5102 
     57 CA         32.7828  -51.0897  -54.5193 C.3       3 UNK         0.0241 
     58 CB         31.6420  -51.2682  -55.5379 C.3       3 UNK        -0.1971 
     59 N          33.6865  -50.0483  -55.0089 N.am      3 UNK        -0.4139 
     60 C          35.0076  -50.0081  -54.7907 C.2       2 UNK         0.5016 
     61 O          35.6309  -50.8805  -54.1853 O.2       2 UNK        -0.5319 
     62 CA         35.7618  -48.7782  -55.3296 C.3       2 UNK         0.0286 
     63 CB         36.4216  -49.1019  -56.6798 C.3       2 UNK        -0.1963 
     64 N          34.9093  -47.5933  -55.4825 N.am      2 UNK        -0.4790 
     65 C          34.4016  -46.8861  -54.4619 C.2       1 UNK         0.5024 
     66 O          34.6076  -47.1538  -53.2779 O.2       1 UNK        -0.4888 
     67 H67        29.5992  -47.2228  -56.6121 H         1 UNK         0.0892 
     68 H68        30.7205  -46.3936  -57.6941 H         1 UNK         0.0892 
     69 H69        30.8312  -48.1460  -57.4701 H         1 UNK         0.0892 
     70 H70        32.5650  -45.5167  -56.7243 H         1 UNK         0.3107 
     71 H71        32.8741  -45.5195  -53.9327 H         1 UNK         0.0773 
     72 H72        34.9968  -44.6444  -55.9486 H         1 UNK         0.0680 
     73 H73        34.8452  -44.1157  -54.2938 H         1 UNK         0.0680 
     74 H74        32.8002  -43.0991  -53.3455 H         1 UNK         0.0650 
     75 H75        32.7809  -41.4760  -53.9792 H         1 UNK         0.0650 
     76 H76        30.8245  -44.6542  -53.7930 H         1 UNK         0.1397 
     77 H77        27.0635  -42.6969  -54.3851 H         1 UNK         0.1363 
     78 H78        30.7206  -40.4869  -54.7779 H         1 UNK         0.1355 
     79 H79        28.0369  -39.5532  -54.0804 H         1 UNK         0.0707 
     80 H80        26.9519  -40.4262  -55.1325 H         1 UNK         0.0707 
     81 H81        27.7461  -39.1851  -58.5689 H         1 UNK         0.1034 
     82 H82        26.7344  -40.1390  -57.5434 H         1 UNK         0.1034 
     83 H83        27.9189  -41.3123  -59.4425 H         1 UNK         0.0482 
     84 H84        30.4165  -42.7147  -57.5797 H         1 UNK         0.3460 
     85 H85        31.7338  -41.9481  -58.4296 H         1 UNK         0.3460 
     86 H86        27.9523  -42.3759  -56.7179 H         1 UNK         0.2989 
     87 H87        27.8953  -44.8625  -56.5767 H         1 UNK         0.0559 
     88 H88        25.0268  -44.3119  -57.5777 H         1 UNK         0.0848 
     89 H89        25.7987  -43.4085  -56.2874 H         1 UNK         0.0848 
     90 H90        25.4492  -45.1091  -56.0654 H         1 UNK         0.0848 
     91 H91        27.2372  -45.8483  -59.1322 H         1 UNK         0.3144 
     92 H92        25.9346  -48.1839  -59.2727 H         1 UNK         0.0727 
     93 H93        27.9968  -49.1299  -60.3856 H         1 UNK         0.0790 
     94 H94        28.9950  -48.3582  -59.1598 H         1 UNK         0.0790 
     95 H95        28.0417  -47.3843  -60.2683 H         1 UNK         0.0790 
     96 H96        25.8296  -50.1483  -58.2995 H         1 UNK         0.3215 
     97 H97        26.0801  -51.7742  -56.7834 H         1 UNK         0.0863 
     98 H98        27.4593  -53.8102  -57.3448 H         1 UNK         0.0808 
     99 H99        28.8249  -52.7786  -57.7691 H         1 UNK         0.0808 
    100 H100       27.3528  -52.7357  -58.7312 H         1 UNK         0.0808 
    101 H101       28.4646  -51.1910  -55.2801 H         1 UNK         0.3118 
    102 H102       26.9808  -52.3625  -52.3303 H         1 UNK         0.0546 
    103 H103       29.6376  -53.3712  -53.4760 H         1 UNK         0.0828 
    104 H104       28.3712  -54.3573  -52.7631 H         1 UNK         0.0828 
    105 H105       29.2603  -53.2222  -51.7598 H         1 UNK         0.0828 
    106 H106       29.3986  -50.9069  -52.8690 H         1 UNK         0.3005 
    107 H107       28.4368  -48.1615  -53.9785 H         1 UNK         0.1257 
    108 H108       27.5399  -47.6676  -51.0982 H         1 UNK         0.0775 
    109 H109       26.6834  -47.2047  -52.5432 H         1 UNK         0.0775 
    110 H110       28.4883  -45.8741  -54.5180 H         1 UNK         0.0840 
    111 H111       27.0823  -45.0326  -53.9037 H         1 UNK         0.0840 
    112 H112       30.5062  -48.3797  -53.3476 H         1 UNK         0.2987 
    113 H113       32.2983  -47.9936  -51.2803 H         1 UNK         0.0785 
    114 H114       33.5303  -49.8287  -50.0936 H         1 UNK         0.0798 
    115 H115       32.0617  -50.8047  -50.0763 H         1 UNK         0.0798 
    116 H116       32.1268  -49.2915  -49.1859 H         1 UNK         0.0798 
    117 H117       33.0866  -48.9518  -53.1059 H         1 UNK         0.3079 
    118 H118       33.3232  -52.0356  -54.4425 H         1 UNK         0.0794 
    119 H119       30.9742  -52.0792  -55.2450 H         1 UNK         0.0786 
    120 H120       32.0270  -51.5128  -56.5279 H         1 UNK         0.0786 
    121 H121       31.0367  -50.3654  -55.6288 H         1 UNK         0.0786 
    122 H122       33.2551  -49.2694  -55.4865 H         1 UNK         0.3032 
    123 H123       36.5496  -48.5417  -54.6102 H         1 UNK         0.1094 
    124 H124       37.0251  -48.2673  -57.0373 H         1 UNK         0.0794 
    125 H125       37.0847  -49.9640  -56.5931 H         1 UNK         0.0794 
    126 H126       35.6820  -49.3360  -57.4466 H         1 UNK         0.0794 
    127 H127       34.6830  -47.3092  -56.4254 H         1 UNK         0.3016 
@<TRIPOS>BOND
     1    1    2 1    
     2    1   67 1    
     3    1   68 1    
     4    1   69 1    
     5    2    3 2    
     6    2    4 am   BACKBONE|DICT|INTERRES
     7    4    5 1    
     8    4   70 1    
     9    5    6 1    
    10    5   65 1    
    11    5   71 1    
    12    6    7 1    
    13    6   72 1    
    14    6   73 1    
    15    7    8 1    
    16    8    9 1    
    17    8   74 1    
    18    8   75 1    
    19    9   10 ar   
    20    9   14 ar   
    21   10   11 ar   
    22   10   76 1    
    23   11   12 ar   
    24   11   48 1    
    25   12   13 ar   
    26   12   77 1    
    27   13   14 ar   
    28   13   15 1    
    29   14   78 1    
    30   15   16 1    
    31   15   79 1    
    32   15   80 1    
    33   16   17 1    
    34   17   18 1    
    35   17   81 1    
    36   17   82 1    
    37   18   19 1    
    38   18   22 1    
    39   18   83 1    
    40   19   20 am   BACKBONE|DICT|INTERRES
    41   19   21 2    
    42   20   84 1    
    43   20   85 1    
    44   22   23 am   BACKBONE|DICT|INTERRES
    45   22   86 1    
    46   23   24 2    
    47   23   25 1    
    48   25   26 1    
    49   25   27 1    
    50   25   87 1    
    51   26   88 1    
    52   26   89 1    
    53   26   90 1    
    54   27   28 am   BACKBONE|DICT|INTERRES
    55   27   91 1    
    56   28   29 2    
    57   28   30 1    
    58   30   31 1    
    59   30   32 1    
    60   30   92 1    
    61   31   93 1    
    62   31   94 1    
    63   31   95 1    
    64   32   33 am   BACKBONE|DICT|INTERRES
    65   32   96 1    
    66   33   34 2    
    67   33   35 1    
    68   35   36 1    
    69   35   37 1    
    70   35   97 1    
    71   36   98 1    
    72   36   99 1    
    73   36  100 1    
    74   37   38 am   BACKBONE|DICT|INTERRES
    75   37  101 1    
    76   38   39 2    
    77   38   40 1    
    78   40   41 1    
    79   40   42 1    
    80   40  102 1    
    81   41  103 1    
    82   41  104 1    
    83   41  105 1    
    84   42   43 am   BACKBONE|DICT|INTERRES
    85   42  106 1    
    86   43   44 2    
    87   43   45 1    
    88   45   46 1    
    89   45   49 1    
    90   45  107 1    
    91   46   47 1    
    92   46  108 1    
    93   46  109 1    
    94   47   48 1    
    95   48  110 1    
    96   48  111 1    
    97   49   50 am   BACKBONE|DICT|INTERRES
    98   49  112 1    
    99   50   51 2    
   100   50   52 1    
   101   52   53 1    
   102   52   54 1    
   103   52  113 1    
   104   53  114 1    
   105   53  115 1    
   106   53  116 1    
   107   54   55 am   BACKBONE|DICT|INTERRES
   108   54  117 1    
   109   55   56 2    
   110   55   57 1    
   111   57   58 1    
   112   57   59 1    
   113   57  118 1    
   114   58  119 1    
   115   58  120 1    
   116   58  121 1    
   117   59   60 am   BACKBONE|DICT|INTERRES
   118   59  122 1    
   119   60   61 2    
   120   60   62 1    
   121   62   63 1    
   122   62   64 1    
   123   62  123 1    
   124   63  124 1    
   125   63  125 1    
   126   63  126 1    
   127   64   65 am   BACKBONE|DICT|INTERRES
   128   64  127 1    
   129   65   66 2    
@<TRIPOS>SUBSTRUCTURE
     1 UNK         1 GROUP             0       ****    0 ROOT    
