@<TRIPOS>MOLECULE
3R134
127   129    1
SMALL
USER_CHARGES


@<TRIPOS>ATOM
      1 CA         33.3612  -44.8957  -49.9355 C.3       0 UNK        -0.1968 
      2 C          34.1597  -45.2810  -51.1722 C.2       0 UNK         0.4852 
      3 O          35.3404  -44.9420  -51.2672 O.2       0 UNK        -0.5359 
      4 N          33.5203  -45.9772  -52.1211 N.am      1 UNK        -0.4300 
      5 CA         34.1398  -46.4845  -53.3499 C.3       1 UNK         0.0863 
      6 C6         33.0839  -46.6754  -54.4761 C.3       11 UNK        -0.0953 
      7 S7         33.6595  -46.1043  -56.1103 S.3       11 UNK        -0.2369 
      8 C8         33.7672  -44.2923  -55.9044 C.3       11 UNK         0.0226 
      9 C9         32.4200  -43.6434  -55.6201 C.ar      11 UNK        -0.0699 
     10 C10        31.9795  -43.4876  -54.3035 C.ar      11 UNK        -0.0804 
     11 C11        30.7384  -42.9092  -54.0277 C.ar      11 UNK        -0.0871 
     12 C12        29.9587  -42.4257  -55.0827 C.ar      11 UNK        -0.1008 
     13 C13        30.4072  -42.5371  -56.4033 C.ar      11 UNK        -0.0735 
     14 C14        31.6283  -43.1657  -56.6674 C.ar      11 UNK        -0.0945 
     15 C15        29.5943  -41.9510  -57.5472 C.3       11 UNK         0.0169 
     16 S16        28.4339  -43.1639  -58.2380 S.3       11 UNK        -0.2669 
     17 C17        27.1124  -43.1475  -56.9752 C.3       11 UNK        -0.0850 
     18 CA         25.7397  -43.6197  -57.5184 C.3       10 UNK         0.0855 
     19 C          25.0768  -42.5688  -58.4574 C.2       10 UNK         0.5543 
     20 N          24.8046  -42.8794  -59.7192 N.am      10 UNK        -0.7343 
     21 O          24.7913  -41.4548  -58.0248 O.2       10 UNK        -0.5027 
     22 N          25.8396  -44.9787  -58.0643 N.am      10 UNK        -0.4495 
     23 C          24.8335  -45.8441  -58.2108 C.2       10 UNK         0.4903 
     24 O          23.6652  -45.5886  -57.9182 O.2       10 UNK        -0.4860 
     25 CA         25.1777  -47.2445  -58.7474 C.3       9 UNK         0.0227 
     26 CB         24.9039  -47.3516  -60.2606 C.3       9 UNK        -0.1964 
     27 N          26.5249  -47.7176  -58.3905 N.am      9 UNK        -0.4231 
     28 C          27.7229  -47.3293  -58.8586 C.2       9 UNK         0.5014 
     29 O          27.8594  -46.4658  -59.7250 O.2       9 UNK        -0.5270 
     30 CA         28.9899  -47.9698  -58.2464 C.3       8 UNK         0.0284 
     31 CB         29.9185  -46.8909  -57.6572 C.3       8 UNK        -0.1977 
     32 N          28.7096  -48.9631  -57.2067 N.am      8 UNK        -0.4342 
     33 C          28.2171  -50.1924  -57.4106 C.2       8 UNK         0.5039 
     34 O          28.0473  -50.6880  -58.5244 O.2       8 UNK        -0.5547 
     35 CA         27.7700  -50.9674  -56.1592 C.3       7 UNK         0.0281 
     36 CB         28.9197  -51.8159  -55.5956 C.3       7 UNK        -0.1963 
     37 N          27.2406  -50.0808  -55.1150 N.am      7 UNK        -0.4444 
     38 C          26.0804  -49.4130  -55.2056 C.2       7 UNK         0.5104 
     39 O          25.3157  -49.5066  -56.1646 O.2       7 UNK        -0.5100 
     40 CA         25.7300  -48.4534  -54.0551 C.3       6 UNK         0.0396 
     41 CB         25.0288  -49.2105  -52.9166 C.3       6 UNK        -0.1801 
     42 N          26.9026  -47.7512  -53.5282 N.am      6 UNK        -0.4747 
     43 C          27.5727  -46.7878  -54.1809 C.2       6 UNK         0.5012 
     44 O          27.2315  -46.3419  -55.2748 O.2       6 UNK        -0.5003 
     45 CA         28.8698  -46.2757  -53.5163 C.3       5 UNK         0.0782 
     46 C46        28.5671  -45.0662  -52.5978 C.3       11 UNK        -0.0868 
     47 S47        30.0598  -44.4054  -51.7804 S.3       11 UNK        -0.2515 
     48 C48        30.2639  -42.7823  -52.5866 C.3       11 UNK         0.0199 
     49 N          29.5869  -47.3545  -52.8157 N.am      5 UNK        -0.4607 
     50 C          30.1074  -48.4237  -53.4289 C.2       4 UNK         0.5031 
     51 O          30.0379  -48.6096  -54.6468 O.2       4 UNK        -0.5119 
     52 CA         30.7782  -49.4822  -52.5486 C.3       4 UNK         0.0263 
     53 CB         29.7160  -50.3962  -51.9049 C.3       4 UNK        -0.1967 
     54 N          31.6750  -50.2445  -53.4117 N.am      4 UNK        -0.4237 
     55 C          32.5728  -51.1666  -53.0474 C.2       3 UNK         0.4908 
     56 O          32.7449  -51.5479  -51.8896 O.2       3 UNK        -0.5102 
     57 CA         33.4623  -51.7223  -54.1703 C.3       3 UNK         0.0241 
     58 CB         32.6812  -52.0361  -55.4620 C.3       3 UNK        -0.1971 
     59 N          34.5053  -50.7390  -54.4514 N.am      3 UNK        -0.4139 
     60 C          35.7114  -50.7180  -53.8693 C.2       2 UNK         0.5016 
     61 O          36.1698  -51.6353  -53.1869 O.2       2 UNK        -0.5319 
     62 CA         36.5347  -49.4296  -54.0548 C.3       2 UNK         0.0286 
     63 CB         37.3886  -49.5097  -55.3306 C.3       2 UNK        -0.1963 
     64 N          35.7153  -48.2099  -54.0905 N.am      2 UNK        -0.4790 
     65 C          34.9443  -47.7739  -53.0825 C.2       1 UNK         0.5024 
     66 O          34.8400  -48.3595  -52.0020 O.2       1 UNK        -0.4888 
     67 H67        33.9067  -45.1729  -49.0339 H         1 UNK         0.0892 
     68 H68        33.1945  -43.8190  -49.9175 H         1 UNK         0.0892 
     69 H69        32.3905  -45.3904  -49.9063 H         1 UNK         0.0892 
     70 H70        32.5596  -46.2443  -51.9684 H         1 UNK         0.3107 
     71 H71        34.8705  -45.7388  -53.6662 H         1 UNK         0.0773 
     72 H72        32.1556  -46.1515  -54.2504 H         1 UNK         0.0680 
     73 H73        32.7857  -47.7200  -54.5765 H         1 UNK         0.0680 
     74 H74        34.1894  -43.8704  -56.8176 H         1 UNK         0.0650 
     75 H75        34.4753  -44.0450  -55.1134 H         1 UNK         0.0650 
     76 H76        32.5969  -43.8332  -53.4875 H         1 UNK         0.1397 
     77 H77        29.0103  -41.9487  -54.8773 H         1 UNK         0.1363 
     78 H78        31.9707  -43.2665  -57.6883 H         1 UNK         0.1355 
     79 H79        29.0558  -41.0601  -57.2203 H         1 UNK         0.0707 
     80 H80        30.2644  -41.6204  -58.3424 H         1 UNK         0.0707 
     81 H81        27.4240  -43.7973  -56.1562 H         1 UNK         0.1034 
     82 H82        27.0243  -42.1497  -56.5418 H         1 UNK         0.1034 
     83 H83        25.0741  -43.6837  -56.6555 H         1 UNK         0.0482 
     84 H84        25.0430  -43.7899  -60.0776 H         1 UNK         0.3460 
     85 H85        24.3704  -42.1946  -60.3174 H         1 UNK         0.3460 
     86 H86        26.7579  -45.2544  -58.3919 H         1 UNK         0.2989 
     87 H87        24.4948  -47.9346  -58.2501 H         1 UNK         0.0559 
     88 H88        23.8588  -47.1300  -60.4805 H         1 UNK         0.0848 
     89 H89        25.1065  -48.3567  -60.6304 H         1 UNK         0.0848 
     90 H90        25.5078  -46.6522  -60.8390 H         1 UNK         0.0848 
     91 H91        26.5274  -48.4042  -57.6464 H         1 UNK         0.3144 
     92 H92        29.5213  -48.4696  -59.0586 H         1 UNK         0.0727 
     93 H93        30.8227  -47.3281  -57.2326 H         1 UNK         0.0790 
     94 H94        30.2329  -46.1805  -58.4230 H         1 UNK         0.0790 
     95 H95        29.4253  -46.3171  -56.8724 H         1 UNK         0.0790 
     96 H96        28.9027  -48.6793  -56.2503 H         1 UNK         0.3215 
     97 H97        26.9686  -51.6450  -56.4628 H         1 UNK         0.0863 
     98 H98        28.5926  -52.4187  -54.7484 H         1 UNK         0.0808 
     99 H99        29.7537  -51.1979  -55.2686 H         1 UNK         0.0808 
    100 H100       29.3022  -52.5027  -56.3520 H         1 UNK         0.0808 
    101 H101       27.8286  -49.9152  -54.3130 H         1 UNK         0.3118 
    102 H102       25.0338  -47.7076  -54.4455 H         1 UNK         0.0546 
    103 H103       25.6778  -49.9629  -52.4667 H         1 UNK         0.0828 
    104 H104       24.1390  -49.7252  -53.2820 H         1 UNK         0.0828 
    105 H105       24.7054  -48.5306  -52.1283 H         1 UNK         0.0828 
    106 H106       27.2453  -48.0440  -52.6248 H         1 UNK         0.3005 
    107 H107       29.5175  -45.9251  -54.3243 H         1 UNK         0.1257 
    108 H108       27.8587  -45.3464  -51.8159 H         1 UNK         0.0775 
    109 H109       28.0867  -44.2684  -53.1680 H         1 UNK         0.0775 
    110 H110       29.3275  -42.2256  -52.5250 H         1 UNK         0.0840 
    111 H111       30.9988  -42.2037  -52.0251 H         1 UNK         0.0840 
    112 H112       29.6709  -47.2570  -51.8139 H         1 UNK         0.2987 
    113 H113       31.3685  -48.9850  -51.7763 H         1 UNK         0.0785 
    114 H114       29.0041  -49.8205  -51.3122 H         1 UNK         0.0798 
    115 H115       30.1694  -51.1234  -51.2315 H         1 UNK         0.0798 
    116 H116       29.1492  -50.9497  -52.6536 H         1 UNK         0.0798 
    117 H117       31.5888  -49.9850  -54.3871 H         1 UNK         0.3079 
    118 H118       33.9064  -52.6545  -53.8139 H         1 UNK         0.0794 
    119 H119       33.3240  -52.5274  -56.1927 H         1 UNK         0.0786 
    120 H120       32.2732  -51.1431  -55.9367 H         1 UNK         0.0786 
    121 H121       31.8517  -52.7149  -55.2598 H         1 UNK         0.0786 
    122 H122       34.2354  -49.9281  -54.9880 H         1 UNK         0.3032 
    123 H123       37.2067  -49.3511  -53.1969 H         1 UNK         0.1094 
    124 H124       36.7722  -49.5587  -56.2291 H         1 UNK         0.0794 
    125 H125       38.0486  -48.6468  -55.4218 H         1 UNK         0.0794 
    126 H126       38.0213  -50.3986  -55.3207 H         1 UNK         0.0794 
    127 H127       35.7381  -47.6728  -54.9470 H         1 UNK         0.3016 
@<TRIPOS>BOND
     1    1    2 1    
     2    1   67 1    
     3    1   68 1    
     4    1   69 1    
     5    2    3 2    
     6    2    4 am   BACKBONE|DICT|INTERRES
     7    4    5 1    
     8    4   70 1    
     9    5    6 1    
    10    5   65 1    
    11    5   71 1    
    12    6    7 1    
    13    6   72 1    
    14    6   73 1    
    15    7    8 1    
    16    8    9 1    
    17    8   74 1    
    18    8   75 1    
    19    9   10 ar   
    20    9   14 ar   
    21   10   11 ar   
    22   10   76 1    
    23   11   12 ar   
    24   11   48 1    
    25   12   13 ar   
    26   12   77 1    
    27   13   14 ar   
    28   13   15 1    
    29   14   78 1    
    30   15   16 1    
    31   15   79 1    
    32   15   80 1    
    33   16   17 1    
    34   17   18 1    
    35   17   81 1    
    36   17   82 1    
    37   18   19 1    
    38   18   22 1    
    39   18   83 1    
    40   19   20 am   BACKBONE|DICT|INTERRES
    41   19   21 2    
    42   20   84 1    
    43   20   85 1    
    44   22   23 am   BACKBONE|DICT|INTERRES
    45   22   86 1    
    46   23   24 2    
    47   23   25 1    
    48   25   26 1    
    49   25   27 1    
    50   25   87 1    
    51   26   88 1    
    52   26   89 1    
    53   26   90 1    
    54   27   28 am   BACKBONE|DICT|INTERRES
    55   27   91 1    
    56   28   29 2    
    57   28   30 1    
    58   30   31 1    
    59   30   32 1    
    60   30   92 1    
    61   31   93 1    
    62   31   94 1    
    63   31   95 1    
    64   32   33 am   BACKBONE|DICT|INTERRES
    65   32   96 1    
    66   33   34 2    
    67   33   35 1    
    68   35   36 1    
    69   35   37 1    
    70   35   97 1    
    71   36   98 1    
    72   36   99 1    
    73   36  100 1    
    74   37   38 am   BACKBONE|DICT|INTERRES
    75   37  101 1    
    76   38   39 2    
    77   38   40 1    
    78   40   41 1    
    79   40   42 1    
    80   40  102 1    
    81   41  103 1    
    82   41  104 1    
    83   41  105 1    
    84   42   43 am   BACKBONE|DICT|INTERRES
    85   42  106 1    
    86   43   44 2    
    87   43   45 1    
    88   45   46 1    
    89   45   49 1    
    90   45  107 1    
    91   46   47 1    
    92   46  108 1    
    93   46  109 1    
    94   47   48 1    
    95   48  110 1    
    96   48  111 1    
    97   49   50 am   BACKBONE|DICT|INTERRES
    98   49  112 1    
    99   50   51 2    
   100   50   52 1    
   101   52   53 1    
   102   52   54 1    
   103   52  113 1    
   104   53  114 1    
   105   53  115 1    
   106   53  116 1    
   107   54   55 am   BACKBONE|DICT|INTERRES
   108   54  117 1    
   109   55   56 2    
   110   55   57 1    
   111   57   58 1    
   112   57   59 1    
   113   57  118 1    
   114   58  119 1    
   115   58  120 1    
   116   58  121 1    
   117   59   60 am   BACKBONE|DICT|INTERRES
   118   59  122 1    
   119   60   61 2    
   120   60   62 1    
   121   62   63 1    
   122   62   64 1    
   123   62  123 1    
   124   63  124 1    
   125   63  125 1    
   126   63  126 1    
   127   64   65 am   BACKBONE|DICT|INTERRES
   128   64  127 1    
   129   65   66 2    
@<TRIPOS>SUBSTRUCTURE
     1 UNK         1 GROUP             0       ****    0 ROOT    
