@<TRIPOS>MOLECULE
3R134
127   129    1
SMALL
USER_CHARGES


@<TRIPOS>ATOM
      1 CA         34.4712  -43.8530  -50.6032 C.3       0 UNK        -0.1968 
      2 C          35.3461  -44.3208  -51.7577 C.2       0 UNK         0.4852 
      3 O          36.2397  -43.5883  -52.1847 O.2       0 UNK        -0.5359 
      4 N          35.0946  -45.5311  -52.2640 N.am      1 UNK        -0.4300 
      5 CA         35.8197  -46.1653  -53.3628 C.3       1 UNK         0.0863 
      6 C6         35.4292  -45.6179  -54.7653 C.3       11 UNK        -0.0953 
      7 S7         33.6304  -45.6195  -55.0990 S.3       11 UNK        -0.2369 
      8 C8         33.2777  -43.8364  -55.0191 C.3       11 UNK         0.0226 
      9 C9         31.8458  -43.5723  -54.5878 C.ar      11 UNK        -0.0699 
     10 C10        31.5096  -43.6382  -53.2346 C.ar      11 UNK        -0.0804 
     11 C11        30.2067  -43.3693  -52.8101 C.ar      11 UNK        -0.0871 
     12 C12        29.2298  -43.0390  -53.7549 C.ar      11 UNK        -0.1008 
     13 C13        29.5555  -42.9600  -55.1140 C.ar      11 UNK        -0.0735 
     14 C14        30.8669  -43.2286  -55.5235 C.ar      11 UNK        -0.0945 
     15 C15        28.5072  -42.5200  -56.1281 C.3       11 UNK         0.0169 
     16 S16        28.3228  -43.6980  -57.5033 S.3       11 UNK        -0.2669 
     17 C17        27.0947  -42.8260  -58.5385 C.3       11 UNK        -0.0850 
     18 CA         25.7485  -43.5994  -58.6461 C.3       10 UNK         0.0855 
     19 C          24.6262  -42.7661  -59.3386 C.2       10 UNK         0.5543 
     20 N          23.6983  -43.3820  -60.0610 N.am      10 UNK        -0.7343 
     21 O          24.5720  -41.5469  -59.1943 O.2       10 UNK        -0.5027 
     22 N          25.9200  -44.9661  -59.1723 N.am      10 UNK        -0.4495 
     23 C          26.3610  -45.3072  -60.3889 C.2       10 UNK         0.4903 
     24 O          26.6551  -44.4965  -61.2690 O.2       10 UNK        -0.4860 
     25 CA         26.5141  -46.8188  -60.6494 C.3       9 UNK         0.0227 
     26 CB         26.8646  -47.1346  -62.1159 C.3       9 UNK        -0.1964 
     27 N          27.5261  -47.4240  -59.7779 N.am      9 UNK        -0.4231 
     28 C          27.3573  -47.7231  -58.4835 C.2       9 UNK         0.5014 
     29 O          26.3170  -47.4939  -57.8586 O.2       9 UNK        -0.5270 
     30 CA         28.5653  -48.3557  -57.7685 C.3       8 UNK         0.0284 
     31 CB         29.4504  -47.2635  -57.1442 C.3       8 UNK        -0.1977 
     32 N          28.1572  -49.2921  -56.7199 N.am      8 UNK        -0.4342 
     33 C          27.4559  -50.4175  -56.9137 C.2       8 UNK         0.5039 
     34 O          27.1605  -50.8526  -58.0287 O.2       8 UNK        -0.5547 
     35 CA         26.9849  -51.1913  -55.6720 C.3       7 UNK         0.0281 
     36 CB         27.9563  -52.3299  -55.3259 C.3       7 UNK        -0.1963 
     37 N          26.8156  -50.3289  -54.4980 N.am      7 UNK        -0.4444 
     38 C          25.6284  -49.9740  -53.9875 C.2       7 UNK         0.5104 
     39 O          24.5471  -50.2967  -54.4816 O.2       7 UNK        -0.5100 
     40 CA         25.6228  -49.1552  -52.6834 C.3       6 UNK         0.0396 
     41 CB         25.3066  -50.0682  -51.4873 C.3       6 UNK        -0.1801 
     42 N          26.8801  -48.4535  -52.4207 N.am      6 UNK        -0.4747 
     43 C          27.2242  -47.2783  -52.9657 C.2       6 UNK         0.5012 
     44 O          26.5154  -46.6552  -53.7558 O.2       6 UNK        -0.5003 
     45 CA         28.5906  -46.6967  -52.5439 C.3       5 UNK         0.0782 
     46 C46        28.3961  -45.8009  -51.2938 C.3       11 UNK        -0.0868 
     47 S47        29.9474  -45.0876  -50.6518 S.3       11 UNK        -0.2515 
     48 C48        29.8791  -43.3991  -51.3249 C.3       11 UNK         0.0199 
     49 N          29.6428  -47.7057  -52.3383 N.am      5 UNK        -0.4607 
     50 C          30.0309  -48.6338  -53.2216 C.2       4 UNK         0.5031 
     51 O          29.4259  -48.8649  -54.2675 O.2       4 UNK        -0.5119 
     52 CA         31.2685  -49.4617  -52.8377 C.3       4 UNK         0.0263 
     53 CB         30.8655  -50.8401  -52.2783 C.3       4 UNK        -0.1967 
     54 N          32.2445  -49.5734  -53.9308 N.am      4 UNK        -0.4237 
     55 C          32.1515  -50.2481  -55.0911 C.2       3 UNK         0.4908 
     56 O          31.2096  -50.9707  -55.4105 O.2       3 UNK        -0.5102 
     57 CA         33.3268  -50.1183  -56.0796 C.3       3 UNK         0.0241 
     58 CB         32.9955  -49.0909  -57.1748 C.3       3 UNK        -0.1971 
     59 N          34.5929  -49.7525  -55.4423 N.am      3 UNK        -0.4139 
     60 C          35.2921  -50.5415  -54.6135 C.2       2 UNK         0.5016 
     61 O          34.9983  -51.7130  -54.3730 O.2       2 UNK        -0.5319 
     62 CA         36.5170  -49.9176  -53.9169 C.3       2 UNK         0.0286 
     63 CB         37.8170  -50.4082  -54.5754 C.3       2 UNK        -0.1963 
     64 N          36.5203  -48.4484  -53.8875 N.am      2 UNK        -0.4790 
     65 C          35.6173  -47.6843  -53.2563 C.2       1 UNK         0.5024 
     66 O          34.6433  -48.1352  -52.6451 O.2       1 UNK        -0.4888 
     67 H67        35.0760  -43.7121  -49.7079 H         1 UNK         0.0892 
     68 H68        34.0011  -42.9014  -50.8497 H         1 UNK         0.0892 
     69 H69        33.6831  -44.5697  -50.3713 H         1 UNK         0.0892 
     70 H70        34.3780  -46.1261  -51.8659 H         1 UNK         0.3107 
     71 H71        36.8851  -45.9820  -53.2061 H         1 UNK         0.0773 
     72 H72        35.9206  -46.1898  -55.5541 H         1 UNK         0.0680 
     73 H73        35.8167  -44.6043  -54.8753 H         1 UNK         0.0680 
     74 H74        33.4811  -43.3872  -55.9922 H         1 UNK         0.0650 
     75 H75        33.9504  -43.3517  -54.3103 H         1 UNK         0.0650 
     76 H76        32.2662  -43.8961  -52.5077 H         1 UNK         0.1397 
     77 H77        28.2221  -42.8186  -53.4295 H         1 UNK         0.1363 
     78 H78        31.1258  -43.1593  -56.5713 H         1 UNK         0.1355 
     79 H79        27.5360  -42.3879  -55.6484 H         1 UNK         0.0707 
     80 H80        28.7962  -41.5458  -56.5249 H         1 UNK         0.0707 
     81 H81        26.9294  -41.8290  -58.1267 H         1 UNK         0.1034 
     82 H82        27.5256  -42.6653  -59.5277 H         1 UNK         0.1034 
     83 H83        25.3834  -43.7367  -57.6277 H         1 UNK         0.0482 
     84 H84        23.7253  -44.3824  -60.1762 H         1 UNK         0.3460 
     85 H85        22.9689  -42.8404  -60.4973 H         1 UNK         0.3460 
     86 H86        25.7614  -45.7210  -58.5110 H         1 UNK         0.2989 
     87 H87        25.5490  -47.2832  -60.4360 H         1 UNK         0.0559 
     88 H88        27.8289  -46.7134  -62.4030 H         1 UNK         0.0848 
     89 H89        26.1152  -46.7231  -62.7935 H         1 UNK         0.0848 
     90 H90        26.9013  -48.2097  -62.2933 H         1 UNK         0.0848 
     91 H91        28.4262  -47.6038  -60.1992 H         1 UNK         0.3144 
     92 H92        29.1559  -48.9141  -58.4974 H         1 UNK         0.0727 
     93 H93        30.3265  -47.6903  -56.6561 H         1 UNK         0.0790 
     94 H94        28.9048  -46.6846  -56.3970 H         1 UNK         0.0790 
     95 H95        29.8082  -46.5636  -57.9003 H         1 UNK         0.0790 
     96 H96        28.4456  -49.0533  -55.7732 H         1 UNK         0.3215 
     97 H97        26.0320  -51.6527  -55.9403 H         1 UNK         0.0863 
     98 H98        28.9124  -51.9476  -54.9738 H         1 UNK         0.0808 
     99 H99        28.1538  -52.9580  -56.1957 H         1 UNK         0.0808 
    100 H100       27.5481  -52.9730  -54.5464 H         1 UNK         0.0808 
    101 H101       27.6603  -49.9587  -54.0773 H         1 UNK         0.3118 
    102 H102       24.8203  -48.4185  -52.7637 H         1 UNK         0.0546 
    103 H103       26.0724  -50.8322  -51.3473 H         1 UNK         0.0828 
    104 H104       24.3558  -50.5837  -51.6301 H         1 UNK         0.0828 
    105 H105       25.2263  -49.4977  -50.5618 H         1 UNK         0.0828 
    106 H106       27.5271  -48.8923  -51.7810 H         1 UNK         0.3005 
    107 H107       28.9273  -46.0640  -53.3687 H         1 UNK         0.1257 
    108 H108       27.9497  -46.3767  -50.4805 H         1 UNK         0.0775 
    109 H109       27.6921  -44.9943  -51.5084 H         1 UNK         0.0775 
    110 H110       28.9017  -42.9575  -51.1245 H         1 UNK         0.0840 
    111 H111       30.6032  -42.7818  -50.7910 H         1 UNK         0.0840 
    112 H112       30.1800  -47.5871  -51.4912 H         1 UNK         0.2987 
    113 H113       31.7952  -48.9282  -52.0446 H         1 UNK         0.0785 
    114 H114       30.2564  -50.7320  -51.3802 H         1 UNK         0.0798 
    115 H115       30.2814  -51.4182  -52.9942 H         1 UNK         0.0798 
    116 H116       31.7418  -51.4291  -52.0078 H         1 UNK         0.0798 
    117 H117       33.0868  -49.0291  -53.7827 H         1 UNK         0.3079 
    118 H118       33.4605  -51.0923  -56.5553 H         1 UNK         0.0794 
    119 H119       32.0711  -49.3565  -57.6901 H         1 UNK         0.0786 
    120 H120       33.7823  -49.0433  -57.9278 H         1 UNK         0.0786 
    121 H121       32.8616  -48.0901  -56.7631 H         1 UNK         0.0786 
    122 H122       34.9232  -48.8104  -55.5904 H         1 UNK         0.3032 
    123 H123       36.5025  -50.2687  -52.8824 H         1 UNK         0.1094 
    124 H124       37.8625  -51.4984  -54.5865 H         1 UNK         0.0794 
    125 H125       37.8998  -50.0688  -55.6086 H         1 UNK         0.0794 
    126 H126       38.6951  -50.0568  -54.0332 H         1 UNK         0.0794 
    127 H127       37.2839  -47.9953  -54.3706 H         1 UNK         0.3016 
@<TRIPOS>BOND
     1    1    2 1    
     2    1   67 1    
     3    1   68 1    
     4    1   69 1    
     5    2    3 2    
     6    2    4 am   BACKBONE|DICT|INTERRES
     7    4    5 1    
     8    4   70 1    
     9    5    6 1    
    10    5   65 1    
    11    5   71 1    
    12    6    7 1    
    13    6   72 1    
    14    6   73 1    
    15    7    8 1    
    16    8    9 1    
    17    8   74 1    
    18    8   75 1    
    19    9   10 ar   
    20    9   14 ar   
    21   10   11 ar   
    22   10   76 1    
    23   11   12 ar   
    24   11   48 1    
    25   12   13 ar   
    26   12   77 1    
    27   13   14 ar   
    28   13   15 1    
    29   14   78 1    
    30   15   16 1    
    31   15   79 1    
    32   15   80 1    
    33   16   17 1    
    34   17   18 1    
    35   17   81 1    
    36   17   82 1    
    37   18   19 1    
    38   18   22 1    
    39   18   83 1    
    40   19   20 am   BACKBONE|DICT|INTERRES
    41   19   21 2    
    42   20   84 1    
    43   20   85 1    
    44   22   23 am   BACKBONE|DICT|INTERRES
    45   22   86 1    
    46   23   24 2    
    47   23   25 1    
    48   25   26 1    
    49   25   27 1    
    50   25   87 1    
    51   26   88 1    
    52   26   89 1    
    53   26   90 1    
    54   27   28 am   BACKBONE|DICT|INTERRES
    55   27   91 1    
    56   28   29 2    
    57   28   30 1    
    58   30   31 1    
    59   30   32 1    
    60   30   92 1    
    61   31   93 1    
    62   31   94 1    
    63   31   95 1    
    64   32   33 am   BACKBONE|DICT|INTERRES
    65   32   96 1    
    66   33   34 2    
    67   33   35 1    
    68   35   36 1    
    69   35   37 1    
    70   35   97 1    
    71   36   98 1    
    72   36   99 1    
    73   36  100 1    
    74   37   38 am   BACKBONE|DICT|INTERRES
    75   37  101 1    
    76   38   39 2    
    77   38   40 1    
    78   40   41 1    
    79   40   42 1    
    80   40  102 1    
    81   41  103 1    
    82   41  104 1    
    83   41  105 1    
    84   42   43 am   BACKBONE|DICT|INTERRES
    85   42  106 1    
    86   43   44 2    
    87   43   45 1    
    88   45   46 1    
    89   45   49 1    
    90   45  107 1    
    91   46   47 1    
    92   46  108 1    
    93   46  109 1    
    94   47   48 1    
    95   48  110 1    
    96   48  111 1    
    97   49   50 am   BACKBONE|DICT|INTERRES
    98   49  112 1    
    99   50   51 2    
   100   50   52 1    
   101   52   53 1    
   102   52   54 1    
   103   52  113 1    
   104   53  114 1    
   105   53  115 1    
   106   53  116 1    
   107   54   55 am   BACKBONE|DICT|INTERRES
   108   54  117 1    
   109   55   56 2    
   110   55   57 1    
   111   57   58 1    
   112   57   59 1    
   113   57  118 1    
   114   58  119 1    
   115   58  120 1    
   116   58  121 1    
   117   59   60 am   BACKBONE|DICT|INTERRES
   118   59  122 1    
   119   60   61 2    
   120   60   62 1    
   121   62   63 1    
   122   62   64 1    
   123   62  123 1    
   124   63  124 1    
   125   63  125 1    
   126   63  126 1    
   127   64   65 am   BACKBONE|DICT|INTERRES
   128   64  127 1    
   129   65   66 2    
@<TRIPOS>SUBSTRUCTURE
     1 UNK         1 GROUP             0       ****    0 ROOT    
