@<TRIPOS>MOLECULE
3R134
127   129    1
SMALL
USER_CHARGES


@<TRIPOS>ATOM
      1 CA         36.2548  -45.0100  -47.3181 C.3       0 UNK        -0.1968 
      2 C          35.7363  -45.0052  -48.7489 C.2       0 UNK         0.4852 
      3 O          36.4236  -44.5141  -49.6459 O.2       0 UNK        -0.5359 
      4 N          34.5274  -45.5399  -48.9667 N.am      1 UNK        -0.4300 
      5 CA         33.9007  -45.6844  -50.2829 C.3       1 UNK         0.0863 
      6 C6         32.3749  -45.9239  -50.1382 C.3       11 UNK        -0.0953 
      7 S7         31.4663  -45.8286  -51.7154 S.3       11 UNK        -0.2369 
      8 C8         31.2629  -44.0278  -51.9041 C.3       11 UNK         0.0226 
      9 C9         31.0245  -43.6485  -53.3587 C.ar      11 UNK        -0.0699 
     10 C10        31.9729  -43.9886  -54.3271 C.ar      11 UNK        -0.0804 
     11 C11        31.7618  -43.6790  -55.6717 C.ar      11 UNK        -0.0871 
     12 C12        30.6205  -42.9648  -56.0394 C.ar      11 UNK        -0.1008 
     13 C13        29.6659  -42.6085  -55.0820 C.ar      11 UNK        -0.0735 
     14 C14        29.8694  -42.9590  -53.7424 C.ar      11 UNK        -0.0945 
     15 C15        28.4167  -41.8454  -55.4975 C.3       11 UNK         0.0169 
     16 S16        27.1051  -42.9642  -56.0821 S.3       11 UNK        -0.2669 
     17 C17        27.7717  -43.4955  -57.6995 C.3       11 UNK        -0.0850 
     18 CA         26.6664  -43.9211  -58.6990 C.3       10 UNK         0.0855 
     19 C          27.2532  -44.2316  -60.1090 C.2       10 UNK         0.5543 
     20 N          26.9728  -45.3763  -60.7225 N.am      10 UNK        -0.7343 
     21 O          27.9702  -43.4052  -60.6678 O.2       10 UNK        -0.5027 
     22 N          25.8338  -44.9995  -58.1499 N.am      10 UNK        -0.4495 
     23 C          24.5468  -45.2006  -58.4519 C.2       10 UNK         0.4903 
     24 O          23.8888  -44.4624  -59.1874 O.2       10 UNK        -0.4860 
     25 CA         23.9001  -46.4501  -57.8281 C.3       9 UNK         0.0227 
     26 CB         22.5467  -46.8175  -58.4734 C.3       9 UNK        -0.1964 
     27 N          24.8035  -47.6074  -57.8122 N.am      9 UNK        -0.4231 
     28 C          25.3600  -48.2275  -58.8663 C.2       9 UNK         0.5014 
     29 O          25.2016  -47.8518  -60.0291 O.2       9 UNK        -0.5270 
     30 CA         26.2618  -49.4544  -58.6007 C.3       8 UNK         0.0284 
     31 CB         27.5784  -49.3591  -59.3930 C.3       8 UNK        -0.1977 
     32 N          26.5804  -49.6664  -57.1865 N.am      8 UNK        -0.4342 
     33 C          25.7474  -50.1534  -56.2571 C.2       8 UNK         0.5039 
     34 O          24.6202  -50.5806  -56.5055 O.2       8 UNK        -0.5547 
     35 CA         26.2247  -50.0884  -54.7953 C.3       7 UNK         0.0281 
     36 CB         26.8853  -51.4128  -54.3823 C.3       7 UNK        -0.1963 
     37 N          27.1371  -48.9665  -54.5337 N.am      7 UNK        -0.4444 
     38 C          26.7987  -47.6695  -54.6140 C.2       7 UNK         0.5104 
     39 O          25.6718  -47.2772  -54.9168 O.2       7 UNK        -0.5100 
     40 CA         27.9099  -46.6391  -54.3441 C.3       6 UNK         0.0396 
     41 CB         27.9849  -46.3080  -52.8469 C.3       6 UNK        -0.1801 
     42 N          29.2220  -47.0810  -54.8284 N.am      6 UNK        -0.4747 
     43 C          29.5383  -47.1754  -56.1294 C.2       6 UNK         0.5012 
     44 O          28.7726  -46.8504  -57.0381 O.2       6 UNK        -0.5003 
     45 CA         30.8901  -47.8375  -56.4731 C.3       5 UNK         0.0782 
     46 C46        32.1000  -46.8839  -56.3461 C.3       11 UNK        -0.0868 
     47 S47        32.1421  -45.5947  -57.6398 S.3       11 UNK        -0.2515 
     48 C48        32.7533  -44.1373  -56.7295 C.3       11 UNK         0.0199 
     49 N          31.1002  -49.0647  -55.6967 N.am      5 UNK        -0.4607 
     50 C          30.3890  -50.1876  -55.8698 C.2       4 UNK         0.5031 
     51 O          29.4443  -50.2614  -56.6554 O.2       4 UNK        -0.5119 
     52 CA         30.7427  -51.4235  -55.0163 C.3       4 UNK         0.0263 
     53 CB         30.6216  -52.7356  -55.8207 C.3       4 UNK        -0.1967 
     54 N          32.0350  -51.3536  -54.3246 N.am      4 UNK        -0.4237 
     55 C          33.2596  -51.2881  -54.8669 C.2       3 UNK         0.4908 
     56 O          33.4943  -51.2629  -56.0764 O.2       3 UNK        -0.5102 
     57 CA         34.4225  -51.2163  -53.8622 C.3       3 UNK         0.0241 
     58 CB         35.5046  -52.2585  -54.1956 C.3       3 UNK        -0.1971 
     59 N          35.0433  -49.8908  -53.7714 N.am      3 UNK        -0.4139 
     60 C          34.4176  -48.7198  -53.5828 C.2       2 UNK         0.5016 
     61 O          33.1918  -48.5717  -53.5786 O.2       2 UNK        -0.5319 
     62 CA         35.3310  -47.4992  -53.3718 C.3       2 UNK         0.0286 
     63 CB         35.5868  -46.7706  -54.7006 C.3       2 UNK        -0.1963 
     64 N          34.7641  -46.5530  -52.4087 N.am      2 UNK        -0.4790 
     65 C          34.6043  -46.7916  -51.0996 C.2       1 UNK         0.5024 
     66 O          34.9802  -47.8246  -50.5382 O.2       1 UNK        -0.4888 
     67 H67        36.4505  -43.9907  -46.9864 H         1 UNK         0.0892 
     68 H68        37.1860  -45.5728  -47.2589 H         1 UNK         0.0892 
     69 H69        35.5424  -45.4601  -46.6270 H         1 UNK         0.0892 
     70 H70        34.0261  -45.9574  -48.1958 H         1 UNK         0.3107 
     71 H71        34.0460  -44.7374  -50.8069 H         1 UNK         0.0773 
     72 H72        32.1811  -46.9006  -49.6908 H         1 UNK         0.0680 
     73 H73        31.9412  -45.1903  -49.4565 H         1 UNK         0.0680 
     74 H74        32.1558  -43.5099  -51.5533 H         1 UNK         0.0650 
     75 H75        30.4394  -43.6965  -51.2697 H         1 UNK         0.0650 
     76 H76        32.8618  -44.5288  -54.0352 H         1 UNK         0.1397 
     77 H77        30.4677  -42.7088  -57.0782 H         1 UNK         0.1363 
     78 H78        29.1291  -42.6927  -53.0005 H         1 UNK         0.1355 
     79 H79        28.6569  -41.1164  -56.2729 H         1 UNK         0.0707 
     80 H80        28.0336  -41.2713  -54.6525 H         1 UNK         0.0707 
     81 H81        28.4790  -44.3100  -57.5378 H         1 UNK         0.1034 
     82 H82        28.3470  -42.6696  -58.1210 H         1 UNK         0.1034 
     83 H83        26.0257  -43.0492  -58.8444 H         1 UNK         0.0482 
     84 H84        26.3563  -46.0600  -60.3019 H         1 UNK         0.3460 
     85 H85        27.3602  -45.5491  -61.6361 H         1 UNK         0.3460 
     86 H86        26.3073  -45.6615  -57.5515 H         1 UNK         0.2989 
     87 H87        23.7092  -46.2018  -56.7831 H         1 UNK         0.0559 
     88 H88        22.1067  -47.6950  -57.9999 H         1 UNK         0.0848 
     89 H89        22.6489  -47.0266  -59.5388 H         1 UNK         0.0848 
     90 H90        21.8302  -46.0017  -58.3705 H         1 UNK         0.0848 
     91 H91        25.0389  -47.9468  -56.8869 H         1 UNK         0.3144 
     92 H92        25.7161  -50.3293  -58.9595 H         1 UNK         0.0727 
     93 H93        28.2049  -50.2361  -59.2291 H         1 UNK         0.0790 
     94 H94        28.1555  -48.4783  -59.1094 H         1 UNK         0.0790 
     95 H95        27.3911  -49.2945  -60.4655 H         1 UNK         0.0790 
     96 H96        27.5205  -49.4154  -56.8989 H         1 UNK         0.3215 
     97 H97        25.3413  -49.9416  -54.1698 H         1 UNK         0.0863 
     98 H98        27.2441  -51.3810  -53.3534 H         1 UNK         0.0808 
     99 H99        27.7235  -51.6652  -55.0302 H         1 UNK         0.0808 
    100 H100       26.1717  -52.2351  -54.4498 H         1 UNK         0.0808 
    101 H101       28.0898  -49.1937  -54.2939 H         1 UNK         0.3118 
    102 H102       27.6439  -45.7226  -54.8747 H         1 UNK         0.0546 
    103 H103       28.3354  -47.1555  -52.2570 H         1 UNK         0.0828 
    104 H104       27.0059  -46.0213  -52.4603 H         1 UNK         0.0828 
    105 H105       28.6551  -45.4694  -52.6651 H         1 UNK         0.0828 
    106 H106       29.9058  -47.3563  -54.1371 H         1 UNK         0.3005 
    107 H107       30.8254  -48.1410  -57.5211 H         1 UNK         0.1257 
    108 H108       32.1354  -46.4498  -55.3480 H         1 UNK         0.0775 
    109 H109       33.0227  -47.4567  -56.4508 H         1 UNK         0.0775 
    110 H110       33.7227  -44.3656  -56.2845 H         1 UNK         0.0840 
    111 H111       32.9287  -43.3265  -57.4382 H         1 UNK         0.0840 
    112 H112       31.8430  -49.0461  -55.0033 H         1 UNK         0.2987 
    113 H113       29.9934  -51.4564  -54.2248 H         1 UNK         0.0785 
    114 H114       29.6140  -52.8652  -56.2176 H         1 UNK         0.0798 
    115 H115       30.8350  -53.6045  -55.1982 H         1 UNK         0.0798 
    116 H116       31.3060  -52.7541  -56.6694 H         1 UNK         0.0798 
    117 H117       31.9741  -51.3131  -53.3161 H         1 UNK         0.3079 
    118 H118       34.0354  -51.4525  -52.8688 H         1 UNK         0.0794 
    119 H119       35.0744  -53.2584  -54.2690 H         1 UNK         0.0786 
    120 H120       36.2742  -52.2954  -53.4243 H         1 UNK         0.0786 
    121 H121       35.9925  -52.0440  -55.1475 H         1 UNK         0.0786 
    122 H122       36.0526  -49.8852  -53.7989 H         1 UNK         0.3032 
    123 H123       36.2883  -47.8448  -52.9746 H         1 UNK         0.1094 
    124 H124       35.9811  -47.4528  -55.4552 H         1 UNK         0.0794 
    125 H125       34.6744  -46.3319  -55.1020 H         1 UNK         0.0794 
    126 H126       36.3158  -45.9694  -54.5783 H         1 UNK         0.0794 
    127 H127       34.3938  -45.6956  -52.7879 H         1 UNK         0.3016 
@<TRIPOS>BOND
     1    1    2 1    
     2    1   67 1    
     3    1   68 1    
     4    1   69 1    
     5    2    3 2    
     6    2    4 am   BACKBONE|DICT|INTERRES
     7    4    5 1    
     8    4   70 1    
     9    5    6 1    
    10    5   65 1    
    11    5   71 1    
    12    6    7 1    
    13    6   72 1    
    14    6   73 1    
    15    7    8 1    
    16    8    9 1    
    17    8   74 1    
    18    8   75 1    
    19    9   10 ar   
    20    9   14 ar   
    21   10   11 ar   
    22   10   76 1    
    23   11   12 ar   
    24   11   48 1    
    25   12   13 ar   
    26   12   77 1    
    27   13   14 ar   
    28   13   15 1    
    29   14   78 1    
    30   15   16 1    
    31   15   79 1    
    32   15   80 1    
    33   16   17 1    
    34   17   18 1    
    35   17   81 1    
    36   17   82 1    
    37   18   19 1    
    38   18   22 1    
    39   18   83 1    
    40   19   20 am   BACKBONE|DICT|INTERRES
    41   19   21 2    
    42   20   84 1    
    43   20   85 1    
    44   22   23 am   BACKBONE|DICT|INTERRES
    45   22   86 1    
    46   23   24 2    
    47   23   25 1    
    48   25   26 1    
    49   25   27 1    
    50   25   87 1    
    51   26   88 1    
    52   26   89 1    
    53   26   90 1    
    54   27   28 am   BACKBONE|DICT|INTERRES
    55   27   91 1    
    56   28   29 2    
    57   28   30 1    
    58   30   31 1    
    59   30   32 1    
    60   30   92 1    
    61   31   93 1    
    62   31   94 1    
    63   31   95 1    
    64   32   33 am   BACKBONE|DICT|INTERRES
    65   32   96 1    
    66   33   34 2    
    67   33   35 1    
    68   35   36 1    
    69   35   37 1    
    70   35   97 1    
    71   36   98 1    
    72   36   99 1    
    73   36  100 1    
    74   37   38 am   BACKBONE|DICT|INTERRES
    75   37  101 1    
    76   38   39 2    
    77   38   40 1    
    78   40   41 1    
    79   40   42 1    
    80   40  102 1    
    81   41  103 1    
    82   41  104 1    
    83   41  105 1    
    84   42   43 am   BACKBONE|DICT|INTERRES
    85   42  106 1    
    86   43   44 2    
    87   43   45 1    
    88   45   46 1    
    89   45   49 1    
    90   45  107 1    
    91   46   47 1    
    92   46  108 1    
    93   46  109 1    
    94   47   48 1    
    95   48  110 1    
    96   48  111 1    
    97   49   50 am   BACKBONE|DICT|INTERRES
    98   49  112 1    
    99   50   51 2    
   100   50   52 1    
   101   52   53 1    
   102   52   54 1    
   103   52  113 1    
   104   53  114 1    
   105   53  115 1    
   106   53  116 1    
   107   54   55 am   BACKBONE|DICT|INTERRES
   108   54  117 1    
   109   55   56 2    
   110   55   57 1    
   111   57   58 1    
   112   57   59 1    
   113   57  118 1    
   114   58  119 1    
   115   58  120 1    
   116   58  121 1    
   117   59   60 am   BACKBONE|DICT|INTERRES
   118   59  122 1    
   119   60   61 2    
   120   60   62 1    
   121   62   63 1    
   122   62   64 1    
   123   62  123 1    
   124   63  124 1    
   125   63  125 1    
   126   63  126 1    
   127   64   65 am   BACKBONE|DICT|INTERRES
   128   64  127 1    
   129   65   66 2    
@<TRIPOS>SUBSTRUCTURE
     1 UNK         1 GROUP             0       ****    0 ROOT    
