@<TRIPOS>MOLECULE
3R134
127   129    1
SMALL
USER_CHARGES


@<TRIPOS>ATOM
      1 CA         33.2299  -45.9140  -58.0918 C.3       0 UNK        -0.1968 
      2 C          33.3067  -46.3211  -56.6284 C.2       0 UNK         0.4852 
      3 O          32.8801  -47.4216  -56.2811 O.2       0 UNK        -0.5359 
      4 N          33.8680  -45.4521  -55.7739 N.am      1 UNK        -0.4300 
      5 CA         33.9790  -45.6173  -54.3158 C.3       1 UNK         0.0863 
      6 C6         34.7153  -44.4146  -53.6699 C.3       11 UNK        -0.0953 
      7 S7         34.1573  -44.0834  -51.9652 S.3       11 UNK        -0.2369 
      8 C8         33.3495  -42.4615  -52.1422 C.3       11 UNK         0.0226 
      9 C9         31.9649  -42.5744  -52.7641 C.ar      11 UNK        -0.0699 
     10 C10        30.8458  -42.7620  -51.9465 C.ar      11 UNK        -0.0804 
     11 C11        29.5632  -42.8247  -52.5003 C.ar      11 UNK        -0.0871 
     12 C12        29.4072  -42.7044  -53.8837 C.ar      11 UNK        -0.1008 
     13 C13        30.5187  -42.5364  -54.7123 C.ar      11 UNK        -0.0735 
     14 C14        31.7952  -42.4634  -54.1482 C.ar      11 UNK        -0.0945 
     15 C15        30.3284  -42.4407  -56.2156 C.3       11 UNK         0.0169 
     16 S16        30.1187  -44.0960  -56.9307 S.3       11 UNK        -0.2669 
     17 C17        29.5797  -43.6732  -58.6218 C.3       11 UNK        -0.0850 
     18 CA         28.0372  -43.5607  -58.7741 C.3       10 UNK         0.0855 
     19 C          27.6741  -43.2683  -60.2592 C.2       10 UNK         0.5543 
     20 N          27.1501  -44.2284  -61.0122 N.am      10 UNK        -0.7343 
     21 O          27.8783  -42.1532  -60.7322 O.2       10 UNK        -0.5027 
     22 N          27.3508  -44.7194  -58.1835 N.am      10 UNK        -0.4495 
     23 C          26.0313  -44.8703  -58.0112 C.2       10 UNK         0.4903 
     24 O          25.2065  -43.9968  -58.2822 O.2       10 UNK        -0.4860 
     25 CA         25.5418  -46.2109  -57.4180 C.3       9 UNK         0.0227 
     26 CB         24.3437  -46.7851  -58.2022 C.3       9 UNK        -0.1964 
     27 N          26.5921  -47.2273  -57.2457 N.am      9 UNK        -0.4231 
     28 C          27.3310  -47.8170  -58.1999 C.2       9 UNK         0.5014 
     29 O          27.1986  -47.6064  -59.4063 O.2       9 UNK        -0.5270 
     30 CA         28.4510  -48.7527  -57.7233 C.3       8 UNK         0.0284 
     31 CB         29.6817  -47.9309  -57.3084 C.3       8 UNK        -0.1977 
     32 N          28.0490  -49.6170  -56.6138 N.am      8 UNK        -0.4342 
     33 C          27.1820  -50.6338  -56.7187 C.2       8 UNK         0.5039 
     34 O          26.6194  -50.9519  -57.7673 O.2       8 UNK        -0.5547 
     35 CA         26.8933  -51.4359  -55.4422 C.3       7 UNK         0.0281 
     36 CB         28.0183  -52.4415  -55.1585 C.3       7 UNK        -0.1963 
     37 N          26.7204  -50.5575  -54.2865 N.am      7 UNK        -0.4444 
     38 C          25.5532  -50.0035  -53.9357 C.2       7 UNK         0.5104 
     39 O          24.4900  -50.2115  -54.5214 O.2       7 UNK        -0.5100 
     40 CA         25.5624  -49.0623  -52.7181 C.3       6 UNK         0.0396 
     41 CB         25.1732  -49.8311  -51.4455 C.3       6 UNK        -0.1801 
     42 N          26.8389  -48.3773  -52.4952 N.am      6 UNK        -0.4747 
     43 C          27.3682  -47.4642  -53.3225 C.2       6 UNK         0.5012 
     44 O          26.8857  -47.1642  -54.4151 O.2       6 UNK        -0.5003 
     45 CA         28.6827  -46.8017  -52.8592 C.3       5 UNK         0.0782 
     46 C46        28.4457  -45.8315  -51.6704 C.3       11 UNK        -0.0868 
     47 S47        27.3306  -44.4372  -52.0568 S.3       11 UNK        -0.2515 
     48 C48        28.3448  -42.9933  -51.6026 C.3       11 UNK         0.0199 
     49 N          29.7351  -47.7713  -52.5224 N.am      5 UNK        -0.4607 
     50 C          30.1373  -48.8271  -53.2441 C.2       4 UNK         0.5031 
     51 O          29.5936  -49.2067  -54.2823 O.2       4 UNK        -0.5119 
     52 CA         31.3301  -49.6021  -52.6653 C.3       4 UNK         0.0263 
     53 CB         30.8682  -50.8388  -51.8683 C.3       4 UNK        -0.1967 
     54 N          32.3313  -49.9162  -53.6915 N.am      4 UNK        -0.4237 
     55 C          32.3317  -50.8827  -54.6254 C.2       3 UNK         0.4908 
     56 O          31.4920  -51.7784  -54.7011 O.2       3 UNK        -0.5102 
     57 CA         33.4831  -50.8802  -55.6508 C.3       3 UNK         0.0241 
     58 CB         32.9489  -50.7816  -57.0908 C.3       3 UNK        -0.1971 
     59 N          34.4430  -49.7970  -55.4222 N.am      3 UNK        -0.4139 
     60 C          35.5437  -49.9056  -54.6638 C.2       2 UNK         0.5016 
     61 O          35.9026  -50.9557  -54.1296 O.2       2 UNK        -0.5319 
     62 CA         36.3887  -48.6359  -54.4431 C.3       2 UNK         0.0286 
     63 CB         37.6221  -48.6472  -55.3607 C.3       2 UNK        -0.1963 
     64 N          35.6594  -47.3795  -54.6415 N.am      2 UNK        -0.4790 
     65 C          34.6326  -46.9518  -53.8911 C.2       1 UNK         0.5024 
     66 O          34.1741  -47.5860  -52.9402 O.2       1 UNK        -0.4888 
     67 H67        33.8366  -46.5842  -58.6999 H         1 UNK         0.0892 
     68 H68        33.5796  -44.8943  -58.2515 H         1 UNK         0.0892 
     69 H69        32.2000  -45.9753  -58.4414 H         1 UNK         0.0892 
     70 H70        34.2137  -44.5759  -56.1373 H         1 UNK         0.3107 
     71 H71        32.9497  -45.6347  -53.9496 H         1 UNK         0.0773 
     72 H72        35.7973  -44.5621  -53.6618 H         1 UNK         0.0680 
     73 H73        34.5632  -43.5119  -54.2610 H         1 UNK         0.0680 
     74 H74        33.2698  -42.0065  -51.1537 H         1 UNK         0.0650 
     75 H75        33.9811  -41.7919  -52.7279 H         1 UNK         0.0650 
     76 H76        30.9759  -42.8461  -50.8761 H         1 UNK         0.1397 
     77 H77        28.4183  -42.7564  -54.3192 H         1 UNK         0.1363 
     78 H78        32.6535  -42.3176  -54.7883 H         1 UNK         0.1355 
     79 H79        31.1799  -41.9453  -56.6847 H         1 UNK         0.0707 
     80 H80        29.4504  -41.8312  -56.4356 H         1 UNK         0.0707 
     81 H81        29.9671  -44.4464  -59.2884 H         1 UNK         0.1034 
     82 H82        30.0648  -42.7449  -58.9306 H         1 UNK         0.1034 
     83 H83        27.7116  -42.6895  -58.2029 H         1 UNK         0.0482 
     84 H84        26.9157  -44.0346  -61.9729 H         1 UNK         0.3460 
     85 H85        26.9917  -45.1472  -60.6259 H         1 UNK         0.3460 
     86 H86        27.9505  -45.4816  -57.9087 H         1 UNK         0.2989 
     87 H87        25.1930  -45.9792  -56.4108 H         1 UNK         0.0559 
     88 H88        23.9901  -47.7161  -57.7590 H         1 UNK         0.0848 
     89 H89        24.5971  -46.9841  -59.2438 H         1 UNK         0.0848 
     90 H90        23.5045  -46.0886  -58.2016 H         1 UNK         0.0848 
     91 H91        26.8115  -47.4335  -56.2722 H         1 UNK         0.3144 
     92 H92        28.7347  -49.3916  -58.5623 H         1 UNK         0.0727 
     93 H93        29.4659  -47.2662  -56.4705 H         1 UNK         0.0790 
     94 H94        30.0412  -47.3143  -58.1328 H         1 UNK         0.0790 
     95 H95        30.5029  -48.5784  -57.0049 H         1 UNK         0.0790 
     96 H96        28.5143  -49.4542  -55.7209 H         1 UNK         0.3215 
     97 H97        25.9751  -52.0047  -55.6067 H         1 UNK         0.0863 
     98 H98        27.7811  -53.0721  -54.3018 H         1 UNK         0.0808 
     99 H99        28.9603  -51.9361  -54.9507 H         1 UNK         0.0808 
    100 H100       28.1814  -53.0996  -56.0129 H         1 UNK         0.0808 
    101 H101       27.5551  -50.2855  -53.7847 H         1 UNK         0.3118 
    102 H102       24.8047  -48.2961  -52.8958 H         1 UNK         0.0546 
    103 H103       25.9072  -50.5982  -51.1958 H         1 UNK         0.0828 
    104 H104       24.2111  -50.3302  -51.5701 H         1 UNK         0.0828 
    105 H105       25.0792  -49.1626  -50.5895 H         1 UNK         0.0828 
    106 H106       27.3212  -48.5805  -51.6315 H         1 UNK         0.3005 
    107 H107       29.0580  -46.2182  -53.7035 H         1 UNK         0.1257 
    108 H108       29.4025  -45.4285  -51.3353 H         1 UNK         0.0775 
    109 H109       28.0364  -46.3644  -50.8102 H         1 UNK         0.0775 
    110 H110       27.7292  -42.0958  -51.6760 H         1 UNK         0.0840 
    111 H111       28.6358  -43.0794  -50.5544 H         1 UNK         0.0840 
    112 H112       30.2401  -47.5713  -51.6714 H         1 UNK         0.2987 
    113 H113       31.8506  -48.9444  -51.9671 H         1 UNK         0.0785 
    114 H114       30.2397  -51.5003  -52.4655 H         1 UNK         0.0798 
    115 H115       30.2804  -50.5412  -50.9993 H         1 UNK         0.0798 
    116 H116       31.7167  -51.4177  -51.5038 H         1 UNK         0.0798 
    117 H117       33.0836  -49.2391  -53.7407 H         1 UNK         0.3079 
    118 H118       33.9900  -51.8427  -55.5550 H         1 UNK         0.0794 
    119 H119       32.4303  -49.8403  -57.2666 H         1 UNK         0.0786 
    120 H120       33.7573  -50.8575  -57.8178 H         1 UNK         0.0786 
    121 H121       32.2444  -51.5862  -57.3058 H         1 UNK         0.0786 
    122 H122       34.1781  -48.8870  -55.7893 H         1 UNK         0.3032 
    123 H123       36.7319  -48.6592  -53.4062 H         1 UNK         0.1094 
    124 H124       38.2817  -47.8048  -55.1514 H         1 UNK         0.0794 
    125 H125       38.2076  -49.5567  -55.2172 H         1 UNK         0.0794 
    126 H126       37.3422  -48.6033  -56.4141 H         1 UNK         0.0794 
    127 H127       35.9518  -46.8029  -55.4177 H         1 UNK         0.3016 
@<TRIPOS>BOND
     1    1    2 1    
     2    1   67 1    
     3    1   68 1    
     4    1   69 1    
     5    2    3 2    
     6    2    4 am   BACKBONE|DICT|INTERRES
     7    4    5 1    
     8    4   70 1    
     9    5    6 1    
    10    5   65 1    
    11    5   71 1    
    12    6    7 1    
    13    6   72 1    
    14    6   73 1    
    15    7    8 1    
    16    8    9 1    
    17    8   74 1    
    18    8   75 1    
    19    9   10 ar   
    20    9   14 ar   
    21   10   11 ar   
    22   10   76 1    
    23   11   12 ar   
    24   11   48 1    
    25   12   13 ar   
    26   12   77 1    
    27   13   14 ar   
    28   13   15 1    
    29   14   78 1    
    30   15   16 1    
    31   15   79 1    
    32   15   80 1    
    33   16   17 1    
    34   17   18 1    
    35   17   81 1    
    36   17   82 1    
    37   18   19 1    
    38   18   22 1    
    39   18   83 1    
    40   19   20 am   BACKBONE|DICT|INTERRES
    41   19   21 2    
    42   20   84 1    
    43   20   85 1    
    44   22   23 am   BACKBONE|DICT|INTERRES
    45   22   86 1    
    46   23   24 2    
    47   23   25 1    
    48   25   26 1    
    49   25   27 1    
    50   25   87 1    
    51   26   88 1    
    52   26   89 1    
    53   26   90 1    
    54   27   28 am   BACKBONE|DICT|INTERRES
    55   27   91 1    
    56   28   29 2    
    57   28   30 1    
    58   30   31 1    
    59   30   32 1    
    60   30   92 1    
    61   31   93 1    
    62   31   94 1    
    63   31   95 1    
    64   32   33 am   BACKBONE|DICT|INTERRES
    65   32   96 1    
    66   33   34 2    
    67   33   35 1    
    68   35   36 1    
    69   35   37 1    
    70   35   97 1    
    71   36   98 1    
    72   36   99 1    
    73   36  100 1    
    74   37   38 am   BACKBONE|DICT|INTERRES
    75   37  101 1    
    76   38   39 2    
    77   38   40 1    
    78   40   41 1    
    79   40   42 1    
    80   40  102 1    
    81   41  103 1    
    82   41  104 1    
    83   41  105 1    
    84   42   43 am   BACKBONE|DICT|INTERRES
    85   42  106 1    
    86   43   44 2    
    87   43   45 1    
    88   45   46 1    
    89   45   49 1    
    90   45  107 1    
    91   46   47 1    
    92   46  108 1    
    93   46  109 1    
    94   47   48 1    
    95   48  110 1    
    96   48  111 1    
    97   49   50 am   BACKBONE|DICT|INTERRES
    98   49  112 1    
    99   50   51 2    
   100   50   52 1    
   101   52   53 1    
   102   52   54 1    
   103   52  113 1    
   104   53  114 1    
   105   53  115 1    
   106   53  116 1    
   107   54   55 am   BACKBONE|DICT|INTERRES
   108   54  117 1    
   109   55   56 2    
   110   55   57 1    
   111   57   58 1    
   112   57   59 1    
   113   57  118 1    
   114   58  119 1    
   115   58  120 1    
   116   58  121 1    
   117   59   60 am   BACKBONE|DICT|INTERRES
   118   59  122 1    
   119   60   61 2    
   120   60   62 1    
   121   62   63 1    
   122   62   64 1    
   123   62  123 1    
   124   63  124 1    
   125   63  125 1    
   126   63  126 1    
   127   64   65 am   BACKBONE|DICT|INTERRES
   128   64  127 1    
   129   65   66 2    
@<TRIPOS>SUBSTRUCTURE
     1 UNK         1 GROUP             0       ****    0 ROOT    
