@<TRIPOS>MOLECULE
3R134
127   129    1
SMALL
USER_CHARGES


@<TRIPOS>ATOM
      1 CA         29.5328  -43.9100  -50.5511 C.3       0 UNK        -0.1968 
      2 C          30.6969  -44.6641  -49.9233 C.2       0 UNK         0.4852 
      3 O          30.6413  -45.0005  -48.7392 O.2       0 UNK        -0.5359 
      4 N          31.7488  -44.9219  -50.7096 N.am      1 UNK        -0.4300 
      5 CA         32.9226  -45.7132  -50.3309 C.3       1 UNK         0.0863 
      6 C6         34.2003  -45.1881  -51.0435 C.3       11 UNK        -0.0953 
      7 S7         34.1403  -45.3384  -52.8612 S.3       11 UNK        -0.2369 
      8 C8         33.8132  -43.6263  -53.3913 C.3       11 UNK         0.0226 
      9 C9         32.9469  -43.6080  -54.6424 C.ar      11 UNK        -0.0699 
     10 C10        33.4557  -44.0791  -55.8547 C.ar      11 UNK        -0.0804 
     11 C11        32.6509  -44.1173  -56.9957 C.ar      11 UNK        -0.0871 
     12 C12        31.3279  -43.6717  -56.9220 C.ar      11 UNK        -0.1008 
     13 C13        30.8030  -43.1828  -55.7157 C.ar      11 UNK        -0.0735 
     14 C14        31.6272  -43.1495  -54.5853 C.ar      11 UNK        -0.0945 
     15 C15        29.3561  -42.7067  -55.5571 C.3       11 UNK         0.0169 
     16 S16        28.3073  -42.8191  -57.0487 S.3       11 UNK        -0.2669 
     17 C17        26.6511  -42.9607  -56.2916 C.3       11 UNK        -0.0850 
     18 CA         26.2543  -44.4436  -56.0340 C.3       10 UNK         0.0855 
     19 C          24.9532  -44.5976  -55.1873 C.2       10 UNK         0.5543 
     20 N          24.1538  -45.6412  -55.3800 N.am      10 UNK        -0.7343 
     21 O          24.6729  -43.7719  -54.3215 O.2       10 UNK        -0.5027 
     22 N          26.2980  -45.2689  -57.2517 N.am      10 UNK        -0.4495 
     23 C          25.4791  -45.1733  -58.3052 C.2       10 UNK         0.4903 
     24 O          24.5942  -44.3248  -58.4232 O.2       10 UNK        -0.4860 
     25 CA         25.6592  -46.2229  -59.4153 C.3       9 UNK         0.0227 
     26 CB         26.6639  -45.7188  -60.4645 C.3       9 UNK        -0.1964 
     27 N          26.0733  -47.5529  -58.9491 N.am      9 UNK        -0.4231 
     28 C          25.4378  -48.3189  -58.0490 C.2       9 UNK         0.5014 
     29 O          24.4427  -47.9556  -57.4196 O.2       9 UNK        -0.5270 
     30 CA         25.9852  -49.7434  -57.8437 C.3       8 UNK         0.0284 
     31 CB         26.6759  -50.3192  -59.0973 C.3       8 UNK        -0.1977 
     32 N          26.9149  -49.7931  -56.7168 N.am      8 UNK        -0.4342 
     33 C          26.5644  -49.9510  -55.4333 C.2       8 UNK         0.5039 
     34 O          25.4051  -50.1079  -55.0477 O.2       8 UNK        -0.5547 
     35 CA         27.7038  -49.9508  -54.3983 C.3       7 UNK         0.0281 
     36 CB         28.3895  -51.3254  -54.3350 C.3       7 UNK        -0.1963 
     37 N          28.7048  -48.9156  -54.6579 N.am      7 UNK        -0.4444 
     38 C          28.4840  -47.6001  -54.5300 C.2       7 UNK         0.5104 
     39 O          27.4295  -47.1156  -54.1215 O.2       7 UNK        -0.5100 
     40 CA         29.6349  -46.6666  -54.9345 C.3       6 UNK         0.0396 
     41 CB         30.6116  -46.4848  -53.7671 C.3       6 UNK        -0.1801 
     42 N          30.3531  -47.1541  -56.1122 N.am      6 UNK        -0.4747 
     43 C          29.8544  -47.1258  -57.3561 C.2       6 UNK         0.5012 
     44 O          28.7573  -46.6471  -57.6382 O.2       6 UNK        -0.5003 
     45 CA         30.6806  -47.7967  -58.4706 C.3       5 UNK         0.0782 
     46 C46        31.5966  -46.7905  -59.2142 C.3       11 UNK        -0.0868 
     47 S47        33.1915  -46.4518  -58.3854 S.3       11 UNK        -0.2515 
     48 C48        33.2253  -44.6334  -58.3054 C.3       11 UNK         0.0199 
     49 N          31.4020  -48.9842  -58.0027 N.am      5 UNK        -0.4607 
     50 C          30.8187  -50.1092  -57.5693 C.2       4 UNK         0.5031 
     51 O          29.6024  -50.2906  -57.5746 O.2       4 UNK        -0.5119 
     52 CA         31.7424  -51.1878  -56.9785 C.3       4 UNK         0.0263 
     53 CB         32.2898  -52.0970  -58.0896 C.3       4 UNK        -0.1967 
     54 N          32.8549  -50.6307  -56.2000 N.am      4 UNK        -0.4237 
     55 C          32.7076  -49.8884  -55.0936 C.2       3 UNK         0.4908 
     56 O          31.6115  -49.5963  -54.6112 O.2       3 UNK        -0.5102 
     57 CA         33.9996  -49.3206  -54.4813 C.3       3 UNK         0.0241 
     58 CB         34.4031  -48.0308  -55.2145 C.3       3 UNK        -0.1971 
     59 N          33.8829  -49.0374  -53.0473 N.am      3 UNK        -0.4139 
     60 C          33.7349  -49.9662  -52.0910 C.2       2 UNK         0.5016 
     61 O          33.6798  -51.1752  -52.3246 O.2       2 UNK        -0.5319 
     62 CA         33.6867  -49.4946  -50.6218 C.3       2 UNK         0.0286 
     63 CB         34.8468  -50.1084  -49.8177 C.3       2 UNK        -0.1963 
     64 N          33.7287  -48.0368  -50.4541 N.am      2 UNK        -0.4790 
     65 C          32.6643  -47.2278  -50.5393 C.2       1 UNK         0.5024 
     66 O          31.5280  -47.6446  -50.7737 O.2       1 UNK        -0.4888 
     67 H67        29.7315  -43.6374  -51.5873 H         1 UNK         0.0892 
     68 H68        28.6339  -44.5257  -50.5299 H         1 UNK         0.0892 
     69 H69        29.3331  -42.9955  -49.9932 H         1 UNK         0.0892 
     70 H70        31.7221  -44.6501  -51.6802 H         1 UNK         0.3107 
     71 H71        33.0865  -45.5874  -49.2585 H         1 UNK         0.0773 
     72 H72        34.3676  -44.1445  -50.7730 H         1 UNK         0.0680 
     73 H73        35.0884  -45.7120  -50.6875 H         1 UNK         0.0680 
     74 H74        34.7606  -43.1230  -53.5885 H         1 UNK         0.0650 
     75 H75        33.3276  -43.0703  -52.5882 H         1 UNK         0.0650 
     76 H76        34.4747  -44.4386  -55.9030 H         1 UNK         0.1397 
     77 H77        30.7159  -43.7189  -57.8106 H         1 UNK         0.1363 
     78 H78        31.2290  -42.7825  -53.6494 H         1 UNK         0.1355 
     79 H79        29.3569  -41.6703  -55.2166 H         1 UNK         0.0707 
     80 H80        28.8968  -43.2933  -54.7602 H         1 UNK         0.0707 
     81 H81        26.6405  -42.3848  -55.3644 H         1 UNK         0.1034 
     82 H82        25.9243  -42.4801  -56.9480 H         1 UNK         0.1034 
     83 H83        27.0275  -44.8593  -55.3916 H         1 UNK         0.0482 
     84 H84        23.3224  -45.7366  -54.8197 H         1 UNK         0.3460 
     85 H85        24.3736  -46.3394  -56.0815 H         1 UNK         0.3460 
     86 H86        27.0494  -45.9530  -57.2925 H         1 UNK         0.2989 
     87 H87        24.6905  -46.3455  -59.9037 H         1 UNK         0.0559 
     88 H88        27.6642  -45.6090  -60.0430 H         1 UNK         0.0848 
     89 H89        26.3668  -44.7430  -60.8514 H         1 UNK         0.0848 
     90 H90        26.7278  -46.3965  -61.3159 H         1 UNK         0.0848 
     91 H91        26.9020  -47.9333  -59.3802 H         1 UNK         0.3144 
     92 H92        25.1279  -50.3841  -57.6260 H         1 UNK         0.0727 
     93 H93        27.5982  -49.7935  -59.3459 H         1 UNK         0.0790 
     94 H94        26.0188  -50.2703  -59.9668 H         1 UNK         0.0790 
     95 H95        26.9327  -51.3686  -58.9500 H         1 UNK         0.0790 
     96 H96        27.9060  -49.7446  -56.9430 H         1 UNK         0.3215 
     97 H97        27.2625  -49.7483  -53.4198 H         1 UNK         0.0863 
     98 H98        29.1729  -51.3438  -53.5768 H         1 UNK         0.0808 
     99 H99        28.8414  -51.5977  -55.2889 H         1 UNK         0.0808 
    100 H100       27.6715  -52.1062  -54.0807 H         1 UNK         0.0808 
    101 H101       29.6360  -49.2209  -54.9238 H         1 UNK         0.3118 
    102 H102       29.2159  -45.6898  -55.1786 H         1 UNK         0.0546 
    103 H103       30.1228  -45.9842  -52.9317 H         1 UNK         0.0828 
    104 H104       31.4696  -45.8857  -54.0605 H         1 UNK         0.0828 
    105 H105       30.9876  -47.4370  -53.3955 H         1 UNK         0.0828 
    106 H106       31.2410  -47.6073  -55.9526 H         1 UNK         0.3005 
    107 H107       29.9461  -48.1490  -59.1988 H         1 UNK         0.1257 
    108 H108       31.0645  -45.8578  -59.4116 H         1 UNK         0.0775 
    109 H109       31.8363  -47.1950  -60.1987 H         1 UNK         0.0775 
    110 H110       34.2613  -44.3039  -58.3969 H         1 UNK         0.0840 
    111 H111       32.7020  -44.2022  -59.1600 H         1 UNK         0.0840 
    112 H112       32.4074  -48.9015  -57.9619 H         1 UNK         0.2987 
    113 H113       31.1410  -51.7994  -56.3028 H         1 UNK         0.0785 
    114 H114       31.4762  -52.5363  -58.6689 H         1 UNK         0.0798 
    115 H115       32.8721  -52.9213  -57.6774 H         1 UNK         0.0798 
    116 H116       32.9267  -51.5497  -58.7858 H         1 UNK         0.0798 
    117 H117       33.7867  -50.8189  -56.5416 H         1 UNK         0.3079 
    118 H118       34.7948  -50.0583  -54.6075 H         1 UNK         0.0794 
    119 H119       33.6204  -47.2725  -55.1615 H         1 UNK         0.0786 
    120 H120       34.5975  -48.2229  -56.2702 H         1 UNK         0.0786 
    121 H121       35.3140  -47.6018  -54.7965 H         1 UNK         0.0786 
    122 H122       33.8953  -48.0665  -52.7715 H         1 UNK         0.3032 
    123 H123       32.7505  -49.8720  -50.2034 H         1 UNK         0.1094 
    124 H124       35.8169  -49.7865  -50.1983 H         1 UNK         0.0794 
    125 H125       34.7897  -49.8329  -48.7644 H         1 UNK         0.0794 
    126 H126       34.8246  -51.1982  -49.8642 H         1 UNK         0.0794 
    127 H127       34.6356  -47.6319  -50.2686 H         1 UNK         0.3016 
@<TRIPOS>BOND
     1    1    2 1    
     2    1   67 1    
     3    1   68 1    
     4    1   69 1    
     5    2    3 2    
     6    2    4 am   BACKBONE|DICT|INTERRES
     7    4    5 1    
     8    4   70 1    
     9    5    6 1    
    10    5   65 1    
    11    5   71 1    
    12    6    7 1    
    13    6   72 1    
    14    6   73 1    
    15    7    8 1    
    16    8    9 1    
    17    8   74 1    
    18    8   75 1    
    19    9   10 ar   
    20    9   14 ar   
    21   10   11 ar   
    22   10   76 1    
    23   11   12 ar   
    24   11   48 1    
    25   12   13 ar   
    26   12   77 1    
    27   13   14 ar   
    28   13   15 1    
    29   14   78 1    
    30   15   16 1    
    31   15   79 1    
    32   15   80 1    
    33   16   17 1    
    34   17   18 1    
    35   17   81 1    
    36   17   82 1    
    37   18   19 1    
    38   18   22 1    
    39   18   83 1    
    40   19   20 am   BACKBONE|DICT|INTERRES
    41   19   21 2    
    42   20   84 1    
    43   20   85 1    
    44   22   23 am   BACKBONE|DICT|INTERRES
    45   22   86 1    
    46   23   24 2    
    47   23   25 1    
    48   25   26 1    
    49   25   27 1    
    50   25   87 1    
    51   26   88 1    
    52   26   89 1    
    53   26   90 1    
    54   27   28 am   BACKBONE|DICT|INTERRES
    55   27   91 1    
    56   28   29 2    
    57   28   30 1    
    58   30   31 1    
    59   30   32 1    
    60   30   92 1    
    61   31   93 1    
    62   31   94 1    
    63   31   95 1    
    64   32   33 am   BACKBONE|DICT|INTERRES
    65   32   96 1    
    66   33   34 2    
    67   33   35 1    
    68   35   36 1    
    69   35   37 1    
    70   35   97 1    
    71   36   98 1    
    72   36   99 1    
    73   36  100 1    
    74   37   38 am   BACKBONE|DICT|INTERRES
    75   37  101 1    
    76   38   39 2    
    77   38   40 1    
    78   40   41 1    
    79   40   42 1    
    80   40  102 1    
    81   41  103 1    
    82   41  104 1    
    83   41  105 1    
    84   42   43 am   BACKBONE|DICT|INTERRES
    85   42  106 1    
    86   43   44 2    
    87   43   45 1    
    88   45   46 1    
    89   45   49 1    
    90   45  107 1    
    91   46   47 1    
    92   46  108 1    
    93   46  109 1    
    94   47   48 1    
    95   48  110 1    
    96   48  111 1    
    97   49   50 am   BACKBONE|DICT|INTERRES
    98   49  112 1    
    99   50   51 2    
   100   50   52 1    
   101   52   53 1    
   102   52   54 1    
   103   52  113 1    
   104   53  114 1    
   105   53  115 1    
   106   53  116 1    
   107   54   55 am   BACKBONE|DICT|INTERRES
   108   54  117 1    
   109   55   56 2    
   110   55   57 1    
   111   57   58 1    
   112   57   59 1    
   113   57  118 1    
   114   58  119 1    
   115   58  120 1    
   116   58  121 1    
   117   59   60 am   BACKBONE|DICT|INTERRES
   118   59  122 1    
   119   60   61 2    
   120   60   62 1    
   121   62   63 1    
   122   62   64 1    
   123   62  123 1    
   124   63  124 1    
   125   63  125 1    
   126   63  126 1    
   127   64   65 am   BACKBONE|DICT|INTERRES
   128   64  127 1    
   129   65   66 2    
@<TRIPOS>SUBSTRUCTURE
     1 UNK         1 GROUP             0       ****    0 ROOT    
