@<TRIPOS>MOLECULE
3R134
127   129    1
SMALL
USER_CHARGES


@<TRIPOS>ATOM
      1 CA         32.4882  -46.3465  -50.6364 C.3       0 UNK        -0.1968 
      2 C          33.8818  -45.8881  -51.0365 C.2       0 UNK         0.4852 
      3 O          34.4519  -45.0097  -50.3870 O.2       0 UNK        -0.5359 
      4 N          34.4259  -46.4766  -52.1038 N.am      1 UNK        -0.4300 
      5 CA         35.7314  -46.1489  -52.6765 C.3       1 UNK         0.0863 
      6 C6         35.7291  -44.8511  -53.5380 C.3       11 UNK        -0.0953 
      7 S7         34.3187  -44.7152  -54.6993 S.3       11 UNK        -0.2369 
      8 C8         33.4636  -43.2279  -54.0778 C.3       11 UNK         0.0226 
      9 C9         31.9511  -43.3967  -54.0669 C.ar      11 UNK        -0.0699 
     10 C10        31.2537  -43.4269  -52.8551 C.ar      11 UNK        -0.0804 
     11 C11        29.8597  -43.5375  -52.8388 C.ar      11 UNK        -0.0871 
     12 C12        29.1624  -43.6335  -54.0471 C.ar      11 UNK        -0.1008 
     13 C13        29.8511  -43.6241  -55.2633 C.ar      11 UNK        -0.0735 
     14 C14        31.2431  -43.4933  -55.2679 C.ar      11 UNK        -0.0945 
     15 C15        29.1001  -43.7911  -56.5725 C.3       11 UNK         0.0169 
     16 S16        28.3111  -42.2461  -57.1190 S.3       11 UNK        -0.2669 
     17 C17        28.1465  -42.5640  -58.9117 C.3       11 UNK        -0.0850 
     18 CA         26.8011  -43.2162  -59.3290 C.3       10 UNK         0.0855 
     19 C          26.7540  -43.3841  -60.8770 C.2       10 UNK         0.5543 
     20 N          26.9048  -44.5892  -61.4173 N.am      10 UNK        -0.7343 
     21 O          26.5816  -42.4024  -61.5949 O.2       10 UNK        -0.5027 
     22 N          26.5405  -44.4613  -58.5909 N.am      10 UNK        -0.4495 
     23 C          25.3748  -45.1179  -58.5689 C.2       10 UNK         0.4903 
     24 O          24.3345  -44.6673  -59.0511 O.2       10 UNK        -0.4860 
     25 CA         25.3564  -46.5079  -57.8974 C.3       9 UNK         0.0227 
     26 CB         24.4912  -47.5131  -58.6852 C.3       9 UNK        -0.1964 
     27 N          26.6756  -47.0947  -57.6136 N.am      9 UNK        -0.4231 
     28 C          27.6512  -47.4045  -58.4837 C.2       9 UNK         0.5014 
     29 O          27.6233  -47.1153  -59.6813 O.2       9 UNK        -0.5270 
     30 CA         28.8655  -48.1624  -57.9171 C.3       8 UNK         0.0284 
     31 CB         29.8485  -47.2040  -57.2272 C.3       8 UNK        -0.1977 
     32 N          28.4789  -49.2158  -56.9778 N.am      8 UNK        -0.4342 
     33 C          27.8358  -50.3422  -57.3170 C.2       8 UNK         0.5039 
     34 O          27.5575  -50.6566  -58.4747 O.2       8 UNK        -0.5547 
     35 CA         27.4153  -51.2651  -56.1643 C.3       7 UNK         0.0281 
     36 CB         28.6002  -52.1129  -55.6716 C.3       7 UNK        -0.1963 
     37 N          26.8511  -50.4982  -55.0522 N.am      7 UNK        -0.4444 
     38 C          25.5953  -50.0303  -55.0216 C.2       7 UNK         0.5104 
     39 O          24.7593  -50.2560  -55.8966 O.2       7 UNK        -0.5100 
     40 CA         25.1919  -49.1699  -53.8102 C.3       6 UNK         0.0396 
     41 CB         24.4628  -50.0288  -52.7649 C.3       6 UNK        -0.1801 
     42 N          26.3202  -48.4887  -53.1698 N.am      6 UNK        -0.4747 
     43 C          26.9788  -47.4463  -53.6966 C.2       6 UNK         0.5012 
     44 O          26.7157  -46.9491  -54.7909 O.2       6 UNK        -0.5003 
     45 CA         28.1687  -46.9043  -52.8817 C.3       5 UNK         0.0782 
     46 C46        27.6590  -45.9494  -51.7747 C.3       11 UNK        -0.0868 
     47 S47        29.0035  -45.2024  -50.7954 S.3       11 UNK        -0.2515 
     48 C48        29.1131  -43.5337  -51.5133 C.3       11 UNK         0.0199 
     49 N          29.0362  -47.9683  -52.3570 N.am      5 UNK        -0.4607 
     50 C          29.6363  -48.9023  -53.1046 C.2       4 UNK         0.5031 
     51 O          29.4351  -49.0456  -54.3133 O.2       4 UNK        -0.5119 
     52 CA         30.5788  -49.8723  -52.3744 C.3       4 UNK         0.0263 
     53 CB         29.7823  -51.0556  -51.8011 C.3       4 UNK        -0.1967 
     54 N          31.6088  -50.3826  -53.2820 N.am      4 UNK        -0.4237 
     55 C          32.5880  -49.6324  -53.8011 C.2       3 UNK         0.4908 
     56 O          32.8279  -48.4717  -53.4466 O.2       3 UNK        -0.5102 
     57 CA         33.4289  -50.2836  -54.9085 C.3       3 UNK         0.0241 
     58 CB         32.5964  -50.5476  -56.1771 C.3       3 UNK        -0.1971 
     59 N          34.5149  -49.3673  -55.2221 N.am      3 UNK        -0.4139 
     60 C          35.7739  -49.6868  -55.5308 C.2       2 UNK         0.5016 
     61 O          36.1594  -50.8325  -55.7670 O.2       2 UNK        -0.5319 
     62 CA         36.7819  -48.5209  -55.5494 C.3       2 UNK         0.0286 
     63 CB         37.0143  -48.0314  -56.9878 C.3       2 UNK        -0.1963 
     64 N          36.3686  -47.3832  -54.7146 N.am      2 UNK        -0.4790 
     65 C          36.2691  -47.4078  -53.3769 C.2       1 UNK         0.5024 
     66 O          36.5709  -48.3878  -52.6937 O.2       1 UNK        -0.4888 
     67 H67        32.5487  -47.1961  -49.9573 H         1 UNK         0.0892 
     68 H68        31.9549  -45.5417  -50.1316 H         1 UNK         0.0892 
     69 H69        31.9034  -46.6393  -51.5090 H         1 UNK         0.0892 
     70 H70        33.9060  -47.2064  -52.5901 H         1 UNK         0.3107 
     71 H71        36.4244  -45.9806  -51.8491 H         1 UNK         0.0773 
     72 H72        36.6595  -44.7504  -54.0998 H         1 UNK         0.0680 
     73 H73        35.7289  -43.9937  -52.8651 H         1 UNK         0.0680 
     74 H74        33.7298  -42.3788  -54.7086 H         1 UNK         0.0650 
     75 H75        33.8076  -42.9787  -53.0737 H         1 UNK         0.0650 
     76 H76        31.7943  -43.3523  -51.9212 H         1 UNK         0.1397 
     77 H77        28.0846  -43.7237  -54.0447 H         1 UNK         0.1363 
     78 H78        31.7816  -43.4770  -56.2057 H         1 UNK         0.1355 
     79 H79        29.7864  -44.1457  -57.3418 H         1 UNK         0.0707 
     80 H80        28.3368  -44.5607  -56.4532 H         1 UNK         0.0707 
     81 H81        28.2574  -41.6010  -59.4143 H         1 UNK         0.1034 
     82 H82        28.9891  -43.1664  -59.2563 H         1 UNK         0.1034 
     83 H83        26.0025  -42.5188  -59.0684 H         1 UNK         0.0482 
     84 H84        27.0637  -45.4014  -60.8323 H         1 UNK         0.3460 
     85 H85        26.8723  -44.6895  -62.4192 H         1 UNK         0.3460 
     86 H86        27.3426  -44.9156  -58.1863 H         1 UNK         0.2989 
     87 H87        24.8850  -46.3608  -56.9247 H         1 UNK         0.0559 
     88 H88        24.8765  -47.6734  -59.6927 H         1 UNK         0.0848 
     89 H89        23.4635  -47.1609  -58.7815 H         1 UNK         0.0848 
     90 H90        24.4533  -48.4804  -58.1836 H         1 UNK         0.0848 
     91 H91        26.8332  -47.2929  -56.6274 H         1 UNK         0.3144 
     92 H92        29.3829  -48.6326  -58.7561 H         1 UNK         0.0727 
     93 H93        29.4082  -46.7355  -56.3465 H         1 UNK         0.0790 
     94 H94        30.1663  -46.4149  -57.9090 H         1 UNK         0.0790 
     95 H95        30.7475  -47.7261  -56.9016 H         1 UNK         0.0790 
     96 H96        28.7282  -49.0757  -55.9995 H         1 UNK         0.3215 
     97 H97        26.6513  -51.9477  -56.5439 H         1 UNK         0.0863 
     98 H98        28.2934  -52.8031  -54.8857 H         1 UNK         0.0808 
     99 H99        29.4096  -51.4975  -55.2807 H         1 UNK         0.0808 
    100 H100       29.0124  -52.7115  -56.4850 H         1 UNK         0.0808 
    101 H101       27.4901  -50.2107  -54.3242 H         1 UNK         0.3118 
    102 H102       24.4955  -48.4084  -54.1685 H         1 UNK         0.0546 
    103 H103       25.1105  -50.8046  -52.3546 H         1 UNK         0.0828 
    104 H104       23.5974  -50.5269  -53.2045 H         1 UNK         0.0828 
    105 H105       24.0971  -49.4219  -51.9365 H         1 UNK         0.0828 
    106 H106       26.6169  -48.8399  -52.2702 H         1 UNK         0.3005 
    107 H107       28.7818  -46.3276  -53.5768 H         1 UNK         0.1257 
    108 H108       27.0093  -46.4850  -51.0798 H         1 UNK         0.0775 
    109 H109       27.0443  -45.1558  -52.2036 H         1 UNK         0.0775 
    110 H110       28.1155  -43.1078  -51.6311 H         1 UNK         0.0840 
    111 H111       29.6313  -42.8850  -50.8053 H         1 UNK         0.0840 
    112 H112       29.2411  -47.9181  -51.3695 H         1 UNK         0.2987 
    113 H113       31.0699  -49.3408  -51.5564 H         1 UNK         0.0785 
    114 H114       29.0252  -50.7142  -51.0939 H         1 UNK         0.0798 
    115 H115       30.4322  -51.7476  -51.2651 H         1 UNK         0.0798 
    116 H116       29.2682  -51.6164  -52.5828 H         1 UNK         0.0798 
    117 H117       31.4730  -51.3170  -53.6377 H         1 UNK         0.3079 
    118 H118       33.8347  -51.2222  -54.5249 H         1 UNK         0.0794 
    119 H119       31.8011  -51.2689  -55.9889 H         1 UNK         0.0786 
    120 H120       33.2148  -50.9542  -56.9775 H         1 UNK         0.0786 
    121 H121       32.1289  -49.6355  -56.5483 H         1 UNK         0.0786 
    122 H122       34.3116  -48.4045  -54.9848 H         1 UNK         0.3032 
    123 H123       37.7266  -48.9043  -55.1568 H         1 UNK         0.1094 
    124 H124       37.7840  -47.2603  -57.0257 H         1 UNK         0.0794 
    125 H125       37.3459  -48.8494  -57.6292 H         1 UNK         0.0794 
    126 H126       36.1041  -47.6212  -57.4273 H         1 UNK         0.0794 
    127 H127       36.0807  -46.5411  -55.1959 H         1 UNK         0.3016 
@<TRIPOS>BOND
     1    1    2 1    
     2    1   67 1    
     3    1   68 1    
     4    1   69 1    
     5    2    3 2    
     6    2    4 am   BACKBONE|DICT|INTERRES
     7    4    5 1    
     8    4   70 1    
     9    5    6 1    
    10    5   65 1    
    11    5   71 1    
    12    6    7 1    
    13    6   72 1    
    14    6   73 1    
    15    7    8 1    
    16    8    9 1    
    17    8   74 1    
    18    8   75 1    
    19    9   10 ar   
    20    9   14 ar   
    21   10   11 ar   
    22   10   76 1    
    23   11   12 ar   
    24   11   48 1    
    25   12   13 ar   
    26   12   77 1    
    27   13   14 ar   
    28   13   15 1    
    29   14   78 1    
    30   15   16 1    
    31   15   79 1    
    32   15   80 1    
    33   16   17 1    
    34   17   18 1    
    35   17   81 1    
    36   17   82 1    
    37   18   19 1    
    38   18   22 1    
    39   18   83 1    
    40   19   20 am   BACKBONE|DICT|INTERRES
    41   19   21 2    
    42   20   84 1    
    43   20   85 1    
    44   22   23 am   BACKBONE|DICT|INTERRES
    45   22   86 1    
    46   23   24 2    
    47   23   25 1    
    48   25   26 1    
    49   25   27 1    
    50   25   87 1    
    51   26   88 1    
    52   26   89 1    
    53   26   90 1    
    54   27   28 am   BACKBONE|DICT|INTERRES
    55   27   91 1    
    56   28   29 2    
    57   28   30 1    
    58   30   31 1    
    59   30   32 1    
    60   30   92 1    
    61   31   93 1    
    62   31   94 1    
    63   31   95 1    
    64   32   33 am   BACKBONE|DICT|INTERRES
    65   32   96 1    
    66   33   34 2    
    67   33   35 1    
    68   35   36 1    
    69   35   37 1    
    70   35   97 1    
    71   36   98 1    
    72   36   99 1    
    73   36  100 1    
    74   37   38 am   BACKBONE|DICT|INTERRES
    75   37  101 1    
    76   38   39 2    
    77   38   40 1    
    78   40   41 1    
    79   40   42 1    
    80   40  102 1    
    81   41  103 1    
    82   41  104 1    
    83   41  105 1    
    84   42   43 am   BACKBONE|DICT|INTERRES
    85   42  106 1    
    86   43   44 2    
    87   43   45 1    
    88   45   46 1    
    89   45   49 1    
    90   45  107 1    
    91   46   47 1    
    92   46  108 1    
    93   46  109 1    
    94   47   48 1    
    95   48  110 1    
    96   48  111 1    
    97   49   50 am   BACKBONE|DICT|INTERRES
    98   49  112 1    
    99   50   51 2    
   100   50   52 1    
   101   52   53 1    
   102   52   54 1    
   103   52  113 1    
   104   53  114 1    
   105   53  115 1    
   106   53  116 1    
   107   54   55 am   BACKBONE|DICT|INTERRES
   108   54  117 1    
   109   55   56 2    
   110   55   57 1    
   111   57   58 1    
   112   57   59 1    
   113   57  118 1    
   114   58  119 1    
   115   58  120 1    
   116   58  121 1    
   117   59   60 am   BACKBONE|DICT|INTERRES
   118   59  122 1    
   119   60   61 2    
   120   60   62 1    
   121   62   63 1    
   122   62   64 1    
   123   62  123 1    
   124   63  124 1    
   125   63  125 1    
   126   63  126 1    
   127   64   65 am   BACKBONE|DICT|INTERRES
   128   64  127 1    
   129   65   66 2    
@<TRIPOS>SUBSTRUCTURE
     1 UNK         1 GROUP             0       ****    0 ROOT    
