@<TRIPOS>MOLECULE
3R134
127   129    1
SMALL
USER_CHARGES


@<TRIPOS>ATOM
      1 CA         38.1079  -44.1349  -50.1257 C.3       0 UNK        -0.1968 
      2 C          37.0974  -44.6317  -51.1493 C.2       0 UNK         0.4852 
      3 O          37.4905  -45.2022  -52.1681 O.2       0 UNK        -0.5359 
      4 N          35.8022  -44.4117  -50.8896 N.am      1 UNK        -0.4300 
      5 CA         34.6841  -44.8538  -51.7296 C.3       1 UNK         0.0863 
      6 C6         33.3665  -44.1305  -51.3564 C.3       11 UNK        -0.0953 
      7 S7         33.5160  -42.3216  -51.5736 S.3       11 UNK        -0.2369 
      8 C8         31.8402  -41.8513  -52.1256 C.3       11 UNK         0.0226 
      9 C9         31.4830  -42.1650  -53.5815 C.ar      11 UNK        -0.0699 
     10 C10        32.2771  -42.9672  -54.4149 C.ar      11 UNK        -0.0804 
     11 C11        31.8613  -43.2790  -55.7124 C.ar      11 UNK        -0.0871 
     12 C12        30.6701  -42.7405  -56.2006 C.ar      11 UNK        -0.1008 
     13 C13        29.8696  -41.9377  -55.3885 C.ar      11 UNK        -0.0735 
     14 C14        30.2803  -41.6538  -54.0834 C.ar      11 UNK        -0.0945 
     15 C15        28.5462  -41.4154  -55.9202 C.3       11 UNK         0.0169 
     16 S16        27.2303  -42.6555  -55.6926 S.3       11 UNK        -0.2669 
     17 C17        26.3666  -42.5941  -57.3039 C.3       11 UNK        -0.0850 
     18 CA         26.5905  -43.8475  -58.1997 C.3       10 UNK         0.0855 
     19 C          28.0483  -44.0105  -58.7061 C.2       10 UNK         0.5543 
     20 N          28.5442  -43.0538  -59.4795 N.am      10 UNK        -0.7343 
     21 O          28.7348  -44.9880  -58.4145 O.2       10 UNK        -0.5027 
     22 N          26.0909  -45.0827  -57.5869 N.am      10 UNK        -0.4495 
     23 C          24.8041  -45.4369  -57.5076 C.2       10 UNK         0.4903 
     24 O          23.8723  -44.7252  -57.8881 O.2       10 UNK        -0.4860 
     25 CA         24.5230  -46.8326  -56.9221 C.3       9 UNK         0.0227 
     26 CB         23.0413  -47.2538  -57.0170 C.3       9 UNK        -0.1964 
     27 N          25.4015  -47.8520  -57.5025 N.am      9 UNK        -0.4231 
     28 C          25.4905  -48.2387  -58.7841 C.2       9 UNK         0.5014 
     29 O          24.7634  -47.8237  -59.6877 O.2       9 UNK        -0.5270 
     30 CA         26.5966  -49.2547  -59.1255 C.3       8 UNK         0.0284 
     31 CB         27.8244  -48.5241  -59.6937 C.3       8 UNK        -0.1977 
     32 N          27.0082  -50.0734  -57.9802 N.am      8 UNK        -0.4342 
     33 C          26.2514  -51.0264  -57.4162 C.2       8 UNK         0.5039 
     34 O          25.1588  -51.3842  -57.8579 O.2       8 UNK        -0.5547 
     35 CA         26.7863  -51.6665  -56.1233 C.3       7 UNK         0.0281 
     36 CB         27.8267  -52.7522  -56.4403 C.3       7 UNK        -0.1963 
     37 N          27.3583  -50.6830  -55.1989 N.am      7 UNK        -0.4444 
     38 C          26.6625  -49.7107  -54.5905 C.2       7 UNK         0.5104 
     39 O          25.4453  -49.5665  -54.6973 O.2       7 UNK        -0.5100 
     40 CA         27.4635  -48.6995  -53.7540 C.3       6 UNK         0.0396 
     41 CB         27.7285  -49.2386  -52.3396 C.3       6 UNK        -0.1801 
     42 N          28.7282  -48.3296  -54.3912 N.am      6 UNK        -0.4747 
     43 C          28.8314  -47.6112  -55.5203 C.2       6 UNK         0.5012 
     44 O          27.8663  -47.1431  -56.1240 O.2       6 UNK        -0.5003 
     45 CA         30.2547  -47.4182  -56.0778 C.3       5 UNK         0.0782 
     46 C46        30.9386  -46.2367  -55.3516 C.3       11 UNK        -0.0868 
     47 S47        32.6782  -45.9445  -55.8463 S.3       11 UNK        -0.2515 
     48 C48        32.6466  -44.2652  -56.5670 C.3       11 UNK         0.0199 
     49 N          31.0244  -48.6629  -55.9887 N.am      5 UNK        -0.4607 
     50 C          30.7543  -49.7720  -56.6925 C.2       4 UNK         0.5031 
     51 O          29.8411  -49.8524  -57.5123 O.2       4 UNK        -0.5119 
     52 CA         31.6113  -51.0176  -56.4056 C.3       4 UNK         0.0263 
     53 CB         32.8697  -51.0153  -57.2874 C.3       4 UNK        -0.1967 
     54 N          32.0016  -51.1372  -54.9998 N.am      4 UNK        -0.4237 
     55 C          31.1506  -51.2444  -53.9681 C.2       3 UNK         0.4908 
     56 O          29.9319  -51.3524  -54.0985 O.2       3 UNK        -0.5102 
     57 CA         31.7539  -51.1579  -52.5532 C.3       3 UNK         0.0241 
     58 CB         31.9927  -52.5648  -51.9832 C.3       3 UNK        -0.1971 
     59 N          33.0032  -50.3865  -52.5022 N.am      3 UNK        -0.4139 
     60 C          33.1019  -49.0847  -52.8082 C.2       2 UNK         0.5016 
     61 O          32.1354  -48.3798  -53.1055 O.2       2 UNK        -0.5319 
     62 CA         34.5262  -48.5189  -52.8995 C.3       2 UNK         0.0286 
     63 CB         35.1621  -48.9115  -54.2449 C.3       2 UNK        -0.1963 
     64 N          34.5476  -47.0600  -52.7915 N.am      2 UNK        -0.4790 
     65 C          34.5386  -46.3860  -51.6362 C.2       1 UNK         0.5024 
     66 O          34.4562  -46.9235  -50.5286 O.2       1 UNK        -0.4888 
     67 H67        38.7930  -43.4252  -50.5887 H         1 UNK         0.0892 
     68 H68        37.6256  -43.6394  -49.2832 H         1 UNK         0.0892 
     69 H69        38.6914  -44.9699  -49.7390 H         1 UNK         0.0892 
     70 H70        35.5395  -43.9469  -50.0326 H         1 UNK         0.3107 
     71 H71        34.9275  -44.5966  -52.7630 H         1 UNK         0.0773 
     72 H72        33.0902  -44.3332  -50.3199 H         1 UNK         0.0680 
     73 H73        32.5429  -44.5015  -51.9695 H         1 UNK         0.0680 
     74 H74        31.7367  -40.7765  -51.9696 H         1 UNK         0.0650 
     75 H75        31.1095  -42.3277  -51.4703 H         1 UNK         0.0650 
     76 H76        33.2002  -43.3957  -54.0566 H         1 UNK         0.1397 
     77 H77        30.3387  -42.9861  -57.1995 H         1 UNK         0.1363 
     78 H78        29.6497  -41.0461  -53.4483 H         1 UNK         0.1355 
     79 H79        28.6631  -41.1607  -56.9743 H         1 UNK         0.0707 
     80 H80        28.2634  -40.4927  -55.4113 H         1 UNK         0.0707 
     81 H81        25.3011  -42.4854  -57.0976 H         1 UNK         0.1034 
     82 H82        26.6344  -41.6852  -57.8438 H         1 UNK         0.1034 
     83 H83        26.0031  -43.7033  -59.1089 H         1 UNK         0.0482 
     84 H84        29.4842  -43.1498  -59.8292 H         1 UNK         0.3460 
     85 H85        27.9908  -42.2562  -59.7496 H         1 UNK         0.3460 
     86 H86        26.8119  -45.7214  -57.2612 H         1 UNK         0.2989 
     87 H87        24.7827  -46.7786  -55.8638 H         1 UNK         0.0559 
     88 H88        22.4019  -46.5516  -56.4809 H         1 UNK         0.0848 
     89 H89        22.8825  -48.2382  -56.5764 H         1 UNK         0.0848 
     90 H90        22.6923  -47.2872  -58.0494 H         1 UNK         0.0848 
     91 H91        26.1059  -48.2098  -56.8692 H         1 UNK         0.3144 
     92 H92        26.2064  -49.9214  -59.8974 H         1 UNK         0.0727 
     93 H93        28.2661  -47.8485  -58.9595 H         1 UNK         0.0790 
     94 H94        27.5562  -47.9261  -60.5657 H         1 UNK         0.0790 
     95 H95        28.5957  -49.2277  -60.0075 H         1 UNK         0.0790 
     96 H96        27.9411  -49.9017  -57.6105 H         1 UNK         0.3215 
     97 H97        25.9440  -52.1423  -55.6163 H         1 UNK         0.0863 
     98 H98        28.1901  -53.2328  -55.5317 H         1 UNK         0.0808 
     99 H99        28.6866  -52.3448  -56.9712 H         1 UNK         0.0808 
    100 H100       27.3953  -53.5312  -57.0702 H         1 UNK         0.0808 
    101 H101       28.3480  -50.7746  -54.9816 H         1 UNK         0.3118 
    102 H102       26.8603  -47.7938  -53.6607 H         1 UNK         0.0546 
    103 H103       28.3250  -50.1508  -52.3542 H         1 UNK         0.0828 
    104 H104       26.7915  -49.4729  -51.8326 H         1 UNK         0.0828 
    105 H105       28.2527  -48.5050  -51.7269 H         1 UNK         0.0828 
    106 H106       29.5765  -48.6869  -53.9724 H         1 UNK         0.3005 
    107 H107       30.1576  -47.1580  -57.1348 H         1 UNK         0.1257 
    108 H108       30.3402  -45.3419  -55.5159 H         1 UNK         0.0775 
    109 H109       30.9360  -46.3894  -54.2712 H         1 UNK         0.0775 
    110 H110       33.6703  -43.9076  -56.6855 H         1 UNK         0.0840 
    111 H111       32.2251  -44.3281  -57.5717 H         1 UNK         0.0840 
    112 H112       31.7571  -48.6744  -55.2912 H         1 UNK         0.2987 
    113 H113       31.0166  -51.8968  -56.6595 H         1 UNK         0.0785 
    114 H114       32.6039  -50.9513  -58.3437 H         1 UNK         0.0798 
    115 H115       33.4490  -51.9295  -57.1566 H         1 UNK         0.0798 
    116 H116       33.5203  -50.1686  -57.0639 H         1 UNK         0.0798 
    117 H117       32.9875  -51.0752  -54.7969 H         1 UNK         0.3079 
    118 H118       31.0231  -50.6501  -51.9200 H         1 UNK         0.0794 
    119 H119       32.3388  -52.5214  -50.9503 H         1 UNK         0.0786 
    120 H120       32.7324  -53.1177  -52.5638 H         1 UNK         0.0786 
    121 H121       31.0710  -53.1488  -51.9893 H         1 UNK         0.0786 
    122 H122       33.8420  -50.9002  -52.2706 H         1 UNK         0.3032 
    123 H123       35.1232  -48.9439  -52.0889 H         1 UNK         0.1094 
    124 H124       34.5874  -48.5307  -55.0907 H         1 UNK         0.0794 
    125 H125       36.1770  -48.5223  -54.3302 H         1 UNK         0.0794 
    126 H126       35.2271  -49.9947  -54.3538 H         1 UNK         0.0794 
    127 H127       34.5561  -46.5470  -53.6616 H         1 UNK         0.3016 
@<TRIPOS>BOND
     1    1    2 1    
     2    1   67 1    
     3    1   68 1    
     4    1   69 1    
     5    2    3 2    
     6    2    4 am   BACKBONE|DICT|INTERRES
     7    4    5 1    
     8    4   70 1    
     9    5    6 1    
    10    5   65 1    
    11    5   71 1    
    12    6    7 1    
    13    6   72 1    
    14    6   73 1    
    15    7    8 1    
    16    8    9 1    
    17    8   74 1    
    18    8   75 1    
    19    9   10 ar   
    20    9   14 ar   
    21   10   11 ar   
    22   10   76 1    
    23   11   12 ar   
    24   11   48 1    
    25   12   13 ar   
    26   12   77 1    
    27   13   14 ar   
    28   13   15 1    
    29   14   78 1    
    30   15   16 1    
    31   15   79 1    
    32   15   80 1    
    33   16   17 1    
    34   17   18 1    
    35   17   81 1    
    36   17   82 1    
    37   18   19 1    
    38   18   22 1    
    39   18   83 1    
    40   19   20 am   BACKBONE|DICT|INTERRES
    41   19   21 2    
    42   20   84 1    
    43   20   85 1    
    44   22   23 am   BACKBONE|DICT|INTERRES
    45   22   86 1    
    46   23   24 2    
    47   23   25 1    
    48   25   26 1    
    49   25   27 1    
    50   25   87 1    
    51   26   88 1    
    52   26   89 1    
    53   26   90 1    
    54   27   28 am   BACKBONE|DICT|INTERRES
    55   27   91 1    
    56   28   29 2    
    57   28   30 1    
    58   30   31 1    
    59   30   32 1    
    60   30   92 1    
    61   31   93 1    
    62   31   94 1    
    63   31   95 1    
    64   32   33 am   BACKBONE|DICT|INTERRES
    65   32   96 1    
    66   33   34 2    
    67   33   35 1    
    68   35   36 1    
    69   35   37 1    
    70   35   97 1    
    71   36   98 1    
    72   36   99 1    
    73   36  100 1    
    74   37   38 am   BACKBONE|DICT|INTERRES
    75   37  101 1    
    76   38   39 2    
    77   38   40 1    
    78   40   41 1    
    79   40   42 1    
    80   40  102 1    
    81   41  103 1    
    82   41  104 1    
    83   41  105 1    
    84   42   43 am   BACKBONE|DICT|INTERRES
    85   42  106 1    
    86   43   44 2    
    87   43   45 1    
    88   45   46 1    
    89   45   49 1    
    90   45  107 1    
    91   46   47 1    
    92   46  108 1    
    93   46  109 1    
    94   47   48 1    
    95   48  110 1    
    96   48  111 1    
    97   49   50 am   BACKBONE|DICT|INTERRES
    98   49  112 1    
    99   50   51 2    
   100   50   52 1    
   101   52   53 1    
   102   52   54 1    
   103   52  113 1    
   104   53  114 1    
   105   53  115 1    
   106   53  116 1    
   107   54   55 am   BACKBONE|DICT|INTERRES
   108   54  117 1    
   109   55   56 2    
   110   55   57 1    
   111   57   58 1    
   112   57   59 1    
   113   57  118 1    
   114   58  119 1    
   115   58  120 1    
   116   58  121 1    
   117   59   60 am   BACKBONE|DICT|INTERRES
   118   59  122 1    
   119   60   61 2    
   120   60   62 1    
   121   62   63 1    
   122   62   64 1    
   123   62  123 1    
   124   63  124 1    
   125   63  125 1    
   126   63  126 1    
   127   64   65 am   BACKBONE|DICT|INTERRES
   128   64  127 1    
   129   65   66 2    
@<TRIPOS>SUBSTRUCTURE
     1 UNK         1 GROUP             0       ****    0 ROOT    
