@<TRIPOS>MOLECULE
3R134
127   129    1
SMALL
USER_CHARGES


@<TRIPOS>ATOM
      1 CA         30.5581  -41.2718  -50.7143 C.3       0 UNK        -0.1968 
      2 C          31.5995  -42.3702  -50.5591 C.2       0 UNK         0.4852 
      3 O          32.1997  -42.4954  -49.4901 O.2       0 UNK        -0.5359 
      4 N          31.8189  -43.1604  -51.6157 N.am      1 UNK        -0.4300 
      5 CA         32.7297  -44.3051  -51.6197 C.3       1 UNK         0.0863 
      6 C6         33.3442  -44.5560  -53.0173 C.3       11 UNK        -0.0953 
      7 S7         34.6854  -43.3845  -53.4112 S.3       11 UNK        -0.2369 
      8 C8         33.8777  -42.1864  -54.5231 C.3       11 UNK         0.0226 
      9 C9         33.1825  -42.8330  -55.7160 C.ar      11 UNK        -0.0699 
     10 C10        33.8499  -43.7511  -56.5357 C.ar      11 UNK        -0.0804 
     11 C11        33.1847  -44.3659  -57.6020 C.ar      11 UNK        -0.0871 
     12 C12        31.8584  -44.0208  -57.8736 C.ar      11 UNK        -0.1008 
     13 C13        31.1715  -43.1368  -57.0390 C.ar      11 UNK        -0.0735 
     14 C14        31.8432  -42.5322  -55.9745 C.ar      11 UNK        -0.0945 
     15 C15        29.6803  -42.9026  -57.2287 C.3       11 UNK         0.0169 
     16 S16        28.7086  -44.4418  -57.0629 S.3       11 UNK        -0.2669 
     17 C17        29.3497  -45.1978  -55.5187 C.3       11 UNK        -0.0850 
     18 CA         28.4674  -44.9529  -54.2700 C.3       10 UNK         0.0855 
     19 C          28.5667  -43.4924  -53.7454 C.2       10 UNK         0.5543 
     20 N          27.4661  -42.7721  -53.5702 N.am      10 UNK        -0.7343 
     21 O          29.6651  -43.0076  -53.4864 O.2       10 UNK        -0.5027 
     22 N          27.1078  -45.4622  -54.4885 N.am      10 UNK        -0.4495 
     23 C          26.2909  -45.9383  -53.5421 C.2       10 UNK         0.4903 
     24 O          26.5460  -45.9162  -52.3381 O.2       10 UNK        -0.4860 
     25 CA         24.9645  -46.5658  -54.0175 C.3       9 UNK         0.0227 
     26 CB         23.8061  -45.5724  -53.8290 C.3       9 UNK        -0.1964 
     27 N          24.9762  -47.0366  -55.4104 N.am      9 UNK        -0.4231 
     28 C          25.7787  -47.9943  -55.8984 C.2       9 UNK         0.5014 
     29 O          26.6137  -48.5986  -55.2208 O.2       9 UNK        -0.5270 
     30 CA         25.6437  -48.2840  -57.4042 C.3       8 UNK         0.0284 
     31 CB         26.1654  -47.1010  -58.2373 C.3       8 UNK        -0.1977 
     32 N          26.3858  -49.4879  -57.7812 N.am      8 UNK        -0.4342 
     33 C          25.9570  -50.7411  -57.5726 C.2       8 UNK         0.5039 
     34 O          24.8332  -51.0066  -57.1395 O.2       8 UNK        -0.5547 
     35 CA         26.9413  -51.8912  -57.8750 C.3       7 UNK         0.0281 
     36 CB         26.2313  -53.1898  -58.3163 C.3       7 UNK        -0.1963 
     37 N          28.0137  -51.5236  -58.8078 N.am      7 UNK        -0.4444 
     38 C          27.8942  -51.1809  -60.1008 C.2       7 UNK         0.5104 
     39 O          26.8307  -51.2138  -60.7216 O.2       7 UNK        -0.5100 
     40 CA         29.1793  -50.7078  -60.8199 C.3       6 UNK         0.0396 
     41 CB         28.8783  -49.7026  -61.9522 C.3       6 UNK        -0.1801 
     42 N          30.2144  -50.1718  -59.9210 N.am      6 UNK        -0.4747 
     43 C          30.0846  -49.1366  -59.0768 C.2       6 UNK         0.5012 
     44 O          29.0501  -48.4790  -58.9515 O.2       6 UNK        -0.5003 
     45 CA         31.3002  -48.8109  -58.1839 C.3       5 UNK         0.0782 
     46 C46        31.9382  -47.4757  -58.6359 C.3       11 UNK        -0.0868 
     47 S47        33.5160  -47.1092  -57.7951 S.3       11 UNK        -0.2515 
     48 C48        33.8827  -45.4360  -58.4289 C.3       11 UNK         0.0199 
     49 N          30.9326  -48.7834  -56.7616 N.am      5 UNK        -0.4607 
     50 C          30.2700  -49.7400  -56.0936 C.2       4 UNK         0.5031 
     51 O          29.9043  -50.8045  -56.5987 O.2       4 UNK        -0.5119 
     52 CA         30.0108  -49.4583  -54.6007 C.3       4 UNK         0.0263 
     53 CB         29.2188  -50.5874  -53.9075 C.3       4 UNK        -0.1967 
     54 N          31.2479  -49.1677  -53.8622 N.am      4 UNK        -0.4237 
     55 C          32.3325  -49.9554  -53.7595 C.2       3 UNK         0.4908 
     56 O          32.4443  -51.0592  -54.2939 O.2       3 UNK        -0.5102 
     57 CA         33.5090  -49.4270  -52.9187 C.3       3 UNK         0.0241 
     58 CB         34.5450  -48.7478  -53.8312 C.3       3 UNK        -0.1971 
     59 N          33.1301  -48.4954  -51.8525 N.am      3 UNK        -0.4139 
     60 C          32.3442  -48.7698  -50.7997 C.2       2 UNK         0.5016 
     61 O          31.8285  -49.8697  -50.5995 O.2       2 UNK        -0.5319 
     62 CA         32.1004  -47.6305  -49.7885 C.3       2 UNK         0.0286 
     63 CB         32.7594  -47.9564  -48.4374 C.3       2 UNK        -0.1963 
     64 N          32.5908  -46.3262  -50.2515 N.am      2 UNK        -0.4790 
     65 C          31.9682  -45.5561  -51.1536 C.2       1 UNK         0.5024 
     66 O          30.8832  -45.8419  -51.6634 O.2       1 UNK        -0.4888 
     67 H67        30.3478  -41.0607  -51.7625 H         1 UNK         0.0892 
     68 H68        29.6273  -41.5659  -50.2304 H         1 UNK         0.0892 
     69 H69        30.9086  -40.3495  -50.2520 H         1 UNK         0.0892 
     70 H70        31.2066  -43.0770  -52.4253 H         1 UNK         0.3107 
     71 H71        33.5456  -44.1188  -50.9174 H         1 UNK         0.0773 
     72 H72        32.5718  -44.5460  -53.7876 H         1 UNK         0.0680 
     73 H73        33.7973  -45.5477  -53.0702 H         1 UNK         0.0680 
     74 H74        33.1712  -41.5996  -53.9338 H         1 UNK         0.0650 
     75 H75        34.6290  -41.4864  -54.8903 H         1 UNK         0.0650 
     76 H76        34.8771  -44.0117  -56.3202 H         1 UNK         0.1397 
     77 H77        31.3338  -44.4834  -58.6972 H         1 UNK         0.1363 
     78 H78        31.3100  -41.8537  -55.3224 H         1 UNK         0.1355 
     79 H79        29.5054  -42.4754  -58.2168 H         1 UNK         0.0707 
     80 H80        29.3065  -42.1748  -56.5068 H         1 UNK         0.0707 
     81 H81        30.3788  -44.8981  -55.3214 H         1 UNK         0.1034 
     82 H82        29.4080  -46.2714  -55.7000 H         1 UNK         0.1034 
     83 H83        28.9009  -45.5579  -53.4719 H         1 UNK         0.0482 
     84 H84        26.5633  -43.1670  -53.7762 H         1 UNK         0.3460 
     85 H85        27.5420  -41.8276  -53.2290 H         1 UNK         0.3460 
     86 H86        26.8056  -45.4913  -55.4507 H         1 UNK         0.2989 
     87 H87        24.7753  -47.4338  -53.3826 H         1 UNK         0.0559 
     88 H88        22.8451  -46.0326  -54.0599 H         1 UNK         0.0848 
     89 H89        23.9196  -44.6923  -54.4632 H         1 UNK         0.0848 
     90 H90        23.7540  -45.2243  -52.7962 H         1 UNK         0.0848 
     91 H91        24.3220  -46.5924  -56.0391 H         1 UNK         0.3144 
     92 H92        24.5867  -48.4345  -57.6340 H         1 UNK         0.0727 
     93 H93        26.1228  -47.3179  -59.3050 H         1 UNK         0.0790 
     94 H94        27.1999  -46.8626  -57.9893 H         1 UNK         0.0790 
     95 H95        25.5749  -46.2000  -58.0684 H         1 UNK         0.0790 
     96 H96        27.3313  -49.3416  -58.1193 H         1 UNK         0.3215 
     97 H97        27.4387  -52.1015  -56.9268 H         1 UNK         0.0863 
     98 H98        26.9478  -53.9859  -58.5177 H         1 UNK         0.0808 
     99 H99        25.6315  -53.0405  -59.2143 H         1 UNK         0.0808 
    100 H100       25.5594  -53.5512  -57.5369 H         1 UNK         0.0808 
    101 H101       28.9242  -51.4137  -58.3722 H         1 UNK         0.3118 
    102 H102       29.6091  -51.5996  -61.2780 H         1 UNK         0.0546 
    103 H103       28.3788  -48.8087  -61.5771 H         1 UNK         0.0828 
    104 H104       28.2274  -50.1443  -62.7076 H         1 UNK         0.0828 
    105 H105       29.7908  -49.3894  -62.4591 H         1 UNK         0.0828 
    106 H106       31.0933  -50.6723  -59.9352 H         1 UNK         0.3005 
    107 H107       32.0394  -49.6057  -58.3027 H         1 UNK         0.1257 
    108 H108       32.1325  -47.4848  -59.7106 H         1 UNK         0.0775 
    109 H109       31.2357  -46.6626  -58.4555 H         1 UNK         0.0775 
    110 H110       34.9623  -45.2806  -58.4021 H         1 UNK         0.0840 
    111 H111       33.5922  -45.3589  -59.4778 H         1 UNK         0.0840 
    112 H112       31.2278  -47.9605  -56.2591 H         1 UNK         0.2987 
    113 H113       29.3966  -48.5574  -54.5570 H         1 UNK         0.0785 
    114 H114       29.0108  -50.3426  -52.8660 H         1 UNK         0.0798 
    115 H115       29.7569  -51.5355  -53.9291 H         1 UNK         0.0798 
    116 H116       28.2588  -50.7462  -54.4008 H         1 UNK         0.0798 
    117 H117       31.2703  -48.2826  -53.3754 H         1 UNK         0.3079 
    118 H118       33.9812  -50.2901  -52.4446 H         1 UNK         0.0794 
    119 H119       34.8789  -49.4282  -54.6162 H         1 UNK         0.0786 
    120 H120       35.4305  -48.4434  -53.2729 H         1 UNK         0.0786 
    121 H121       34.1356  -47.8642  -54.3232 H         1 UNK         0.0786 
    122 H122       33.5274  -47.5701  -51.9019 H         1 UNK         0.3032 
    123 H123       31.0204  -47.5645  -49.6359 H         1 UNK         0.1094 
    124 H124       33.8431  -48.0435  -48.5258 H         1 UNK         0.0794 
    125 H125       32.5425  -47.1887  -47.6944 H         1 UNK         0.0794 
    126 H126       32.3885  -48.9020  -48.0390 H         1 UNK         0.0794 
    127 H127       33.4775  -46.0193  -49.8748 H         1 UNK         0.3016 
@<TRIPOS>BOND
     1    1    2 1    
     2    1   67 1    
     3    1   68 1    
     4    1   69 1    
     5    2    3 2    
     6    2    4 am   BACKBONE|DICT|INTERRES
     7    4    5 1    
     8    4   70 1    
     9    5    6 1    
    10    5   65 1    
    11    5   71 1    
    12    6    7 1    
    13    6   72 1    
    14    6   73 1    
    15    7    8 1    
    16    8    9 1    
    17    8   74 1    
    18    8   75 1    
    19    9   10 ar   
    20    9   14 ar   
    21   10   11 ar   
    22   10   76 1    
    23   11   12 ar   
    24   11   48 1    
    25   12   13 ar   
    26   12   77 1    
    27   13   14 ar   
    28   13   15 1    
    29   14   78 1    
    30   15   16 1    
    31   15   79 1    
    32   15   80 1    
    33   16   17 1    
    34   17   18 1    
    35   17   81 1    
    36   17   82 1    
    37   18   19 1    
    38   18   22 1    
    39   18   83 1    
    40   19   20 am   BACKBONE|DICT|INTERRES
    41   19   21 2    
    42   20   84 1    
    43   20   85 1    
    44   22   23 am   BACKBONE|DICT|INTERRES
    45   22   86 1    
    46   23   24 2    
    47   23   25 1    
    48   25   26 1    
    49   25   27 1    
    50   25   87 1    
    51   26   88 1    
    52   26   89 1    
    53   26   90 1    
    54   27   28 am   BACKBONE|DICT|INTERRES
    55   27   91 1    
    56   28   29 2    
    57   28   30 1    
    58   30   31 1    
    59   30   32 1    
    60   30   92 1    
    61   31   93 1    
    62   31   94 1    
    63   31   95 1    
    64   32   33 am   BACKBONE|DICT|INTERRES
    65   32   96 1    
    66   33   34 2    
    67   33   35 1    
    68   35   36 1    
    69   35   37 1    
    70   35   97 1    
    71   36   98 1    
    72   36   99 1    
    73   36  100 1    
    74   37   38 am   BACKBONE|DICT|INTERRES
    75   37  101 1    
    76   38   39 2    
    77   38   40 1    
    78   40   41 1    
    79   40   42 1    
    80   40  102 1    
    81   41  103 1    
    82   41  104 1    
    83   41  105 1    
    84   42   43 am   BACKBONE|DICT|INTERRES
    85   42  106 1    
    86   43   44 2    
    87   43   45 1    
    88   45   46 1    
    89   45   49 1    
    90   45  107 1    
    91   46   47 1    
    92   46  108 1    
    93   46  109 1    
    94   47   48 1    
    95   48  110 1    
    96   48  111 1    
    97   49   50 am   BACKBONE|DICT|INTERRES
    98   49  112 1    
    99   50   51 2    
   100   50   52 1    
   101   52   53 1    
   102   52   54 1    
   103   52  113 1    
   104   53  114 1    
   105   53  115 1    
   106   53  116 1    
   107   54   55 am   BACKBONE|DICT|INTERRES
   108   54  117 1    
   109   55   56 2    
   110   55   57 1    
   111   57   58 1    
   112   57   59 1    
   113   57  118 1    
   114   58  119 1    
   115   58  120 1    
   116   58  121 1    
   117   59   60 am   BACKBONE|DICT|INTERRES
   118   59  122 1    
   119   60   61 2    
   120   60   62 1    
   121   62   63 1    
   122   62   64 1    
   123   62  123 1    
   124   63  124 1    
   125   63  125 1    
   126   63  126 1    
   127   64   65 am   BACKBONE|DICT|INTERRES
   128   64  127 1    
   129   65   66 2    
@<TRIPOS>SUBSTRUCTURE
     1 UNK         1 GROUP             0       ****    0 ROOT    
