@<TRIPOS>MOLECULE
3R134
127   129    1
SMALL
USER_CHARGES


@<TRIPOS>ATOM
      1 CA         36.8403  -43.2844  -50.9496 C.3       0 UNK        -0.1968 
      2 C          37.2570  -44.1465  -52.1322 C.2       0 UNK         0.4852 
      3 O          38.4450  -44.4278  -52.2955 O.2       0 UNK        -0.5359 
      4 N          36.2883  -44.5682  -52.9564 N.am      1 UNK        -0.4300 
      5 CA         36.4992  -45.4169  -54.1365 C.3       1 UNK         0.0863 
      6 C6         35.3456  -45.2755  -55.1633 C.3       11 UNK        -0.0953 
      7 S7         33.6800  -45.6795  -54.5201 S.3       11 UNK        -0.2369 
      8 C8         32.9487  -44.0197  -54.3663 C.3       11 UNK         0.0226 
      9 C9         31.4336  -44.0798  -54.2443 C.ar      11 UNK        -0.0699 
     10 C10        30.8253  -44.2724  -52.9992 C.ar      11 UNK        -0.0804 
     11 C11        29.4306  -44.2825  -52.8852 C.ar      11 UNK        -0.0871 
     12 C12        28.6469  -44.1134  -54.0303 C.ar      11 UNK        -0.1008 
     13 C13        29.2435  -43.9207  -55.2793 C.ar      11 UNK        -0.0735 
     14 C14        30.6371  -43.9047  -55.3801 C.ar      11 UNK        -0.0945 
     15 C15        28.3780  -43.7209  -56.5135 C.3       11 UNK         0.0169 
     16 S16        27.5206  -42.1183  -56.4462 S.3       11 UNK        -0.2669 
     17 C17        26.6685  -42.0601  -58.0575 C.3       11 UNK        -0.0850 
     18 CA         25.2533  -42.7116  -58.0012 C.3       10 UNK         0.0855 
     19 C          24.2596  -42.1373  -59.0617 C.2       10 UNK         0.5543 
     20 N          23.2790  -42.9033  -59.5250 N.am      10 UNK        -0.7343 
     21 O          24.3483  -40.9730  -59.4444 O.2       10 UNK        -0.5027 
     22 N          25.3216  -44.1861  -57.9492 N.am      10 UNK        -0.4495 
     23 C          25.7306  -44.9852  -58.9451 C.2       10 UNK         0.4903 
     24 O          26.0965  -44.5770  -60.0485 O.2       10 UNK        -0.4860 
     25 CA         25.6989  -46.4948  -58.6525 C.3       9 UNK         0.0227 
     26 CB         25.2313  -47.3132  -59.8732 C.3       9 UNK        -0.1964 
     27 N          26.9730  -47.0106  -58.1410 N.am      9 UNK        -0.4231 
     28 C          28.1746  -47.0334  -58.7429 C.2       9 UNK         0.5014 
     29 O          28.4322  -46.5078  -59.8257 O.2       9 UNK        -0.5270 
     30 CA         29.2771  -47.8445  -58.0362 C.3       8 UNK         0.0284 
     31 CB         29.9622  -47.0188  -56.9373 C.3       8 UNK        -0.1977 
     32 N          28.7757  -49.0970  -57.4667 N.am      8 UNK        -0.4342 
     33 C          28.2667  -50.1175  -58.1735 C.2       8 UNK         0.5039 
     34 O          28.2445  -50.1633  -59.4040 O.2       8 UNK        -0.5547 
     35 CA         27.6569  -51.2738  -57.3679 C.3       7 UNK         0.0281 
     36 CB         28.7459  -52.2579  -56.9091 C.3       7 UNK        -0.1963 
     37 N          26.9082  -50.7757  -56.2113 N.am      7 UNK        -0.4444 
     38 C          25.6575  -50.2957  -56.2745 C.2       7 UNK         0.5104 
     39 O          24.9754  -50.2953  -57.2991 O.2       7 UNK        -0.5100 
     40 CA         25.0592  -49.7128  -54.9803 C.3       6 UNK         0.0396 
     41 CB         24.2601  -50.7891  -54.2288 C.3       6 UNK        -0.1801 
     42 N          26.0626  -49.1390  -54.0799 N.am      6 UNK        -0.4747 
     43 C          26.7436  -48.0081  -54.3177 C.2       6 UNK         0.5012 
     44 O          26.5759  -47.3068  -55.3157 O.2       6 UNK        -0.5003 
     45 CA         27.8388  -47.6329  -53.2988 C.3       5 UNK         0.0782 
     46 C46        27.2648  -46.7479  -52.1677 C.3       11 UNK        -0.0868 
     47 S47        28.5692  -46.1691  -51.0279 S.3       11 UNK        -0.2515 
     48 C48        28.7697  -44.4286  -51.5211 C.3       11 UNK         0.0199 
     49 N          28.5537  -48.8029  -52.7704 N.am      5 UNK        -0.4607 
     50 C          29.2584  -49.6610  -53.5139 C.2       4 UNK         0.5031 
     51 O          29.2843  -49.6371  -54.7458 O.2       4 UNK        -0.5119 
     52 CA         30.0484  -50.7458  -52.7692 C.3       4 UNK         0.0263 
     53 CB         29.3315  -52.1020  -52.8676 C.3       4 UNK        -0.1967 
     54 N          31.3906  -50.8548  -53.3414 N.am      4 UNK        -0.4237 
     55 C          32.3360  -49.9196  -53.1859 C.2       3 UNK         0.4908 
     56 O          32.2276  -48.9572  -52.4204 O.2       3 UNK        -0.5102 
     57 CA         33.5864  -50.0642  -54.0643 C.3       3 UNK         0.0241 
     58 CB         33.2951  -49.5639  -55.4903 C.3       3 UNK        -0.1971 
     59 N          34.6724  -49.2666  -53.5004 N.am      3 UNK        -0.4139 
     60 C          35.6080  -49.7186  -52.6574 C.2       2 UNK         0.5016 
     61 O          35.7378  -50.9080  -52.3611 O.2       2 UNK        -0.5319 
     62 CA         36.5332  -48.6718  -51.9997 C.3       2 UNK         0.0286 
     63 CB         38.0043  -49.1381  -51.9531 C.3       2 UNK        -0.1963 
     64 N          36.4204  -47.3155  -52.5615 N.am      2 UNK        -0.4790 
     65 C          36.7766  -46.8965  -53.7877 C.2       1 UNK         0.5024 
     66 O          37.2849  -47.6254  -54.6401 O.2       1 UNK        -0.4888 
     67 H67        37.1251  -43.7667  -50.0149 H         1 UNK         0.0892 
     68 H68        37.3373  -42.3159  -50.9985 H         1 UNK         0.0892 
     69 H69        35.7644  -43.1119  -50.9281 H         1 UNK         0.0892 
     70 H70        35.3295  -44.3105  -52.7732 H         1 UNK         0.3107 
     71 H71        37.4044  -45.0596  -54.6329 H         1 UNK         0.0773 
     72 H72        35.3438  -44.2587  -55.5579 H         1 UNK         0.0680 
     73 H73        35.5316  -45.9115  -56.0310 H         1 UNK         0.0680 
     74 H74        33.2186  -43.4177  -55.2353 H         1 UNK         0.0650 
     75 H75        33.3733  -43.5131  -53.4988 H         1 UNK         0.0650 
     76 H76        31.4378  -44.4006  -52.1171 H         1 UNK         0.1397 
     77 H77        27.5683  -44.1090  -53.9528 H         1 UNK         0.1363 
     78 H78        31.1043  -43.7489  -56.3428 H         1 UNK         0.1355 
     79 H79        28.9762  -43.7783  -57.4242 H         1 UNK         0.0707 
     80 H80        27.6491  -44.5295  -56.5650 H         1 UNK         0.0707 
     81 H81        27.2893  -42.5109  -58.8329 H         1 UNK         0.1034 
     82 H82        26.6040  -41.0023  -58.3174 H         1 UNK         0.1034 
     83 H83        24.8001  -42.4144  -57.0547 H         1 UNK         0.0482 
     84 H84        23.1834  -43.8556  -59.2116 H         1 UNK         0.3460 
     85 H85        22.6328  -42.5248  -60.1996 H         1 UNK         0.3460 
     86 H86        25.0197  -44.6053  -57.0812 H         1 UNK         0.2989 
     87 H87        24.9694  -46.6633  -57.8584 H         1 UNK         0.0559 
     88 H88        25.9218  -47.2260  -60.7128 H         1 UNK         0.0848 
     89 H89        24.2547  -46.9733  -60.2198 H         1 UNK         0.0848 
     90 H90        25.1395  -48.3713  -59.6261 H         1 UNK         0.0848 
     91 H91        26.9204  -47.3893  -57.1986 H         1 UNK         0.3144 
     92 H92        30.0302  -48.1035  -58.7834 H         1 UNK         0.0727 
     93 H93        30.7705  -47.5762  -56.4636 H         1 UNK         0.0790 
     94 H94        29.2606  -46.7243  -56.1573 H         1 UNK         0.0790 
     95 H95        30.3962  -46.1084  -57.3514 H         1 UNK         0.0790 
     96 H96        28.8358  -49.1978  -56.4547 H         1 UNK         0.3215 
     97 H97        26.9712  -51.8154  -58.0238 H         1 UNK         0.0863 
     98 H98        29.5025  -51.7742  -56.2913 H         1 UNK         0.0808 
     99 H99        29.2608  -52.6900  -57.7681 H         1 UNK         0.0808 
    100 H100       28.3207  -53.0836  -56.3385 H         1 UNK         0.0808 
    101 H101       27.4216  -50.6776  -55.3461 H         1 UNK         0.3118 
    102 H102       24.3688  -48.9166  -55.2676 H         1 UNK         0.0546 
    103 H103       23.7618  -50.3748  -53.3523 H         1 UNK         0.0828 
    104 H104       24.8971  -51.6103  -53.8980 H         1 UNK         0.0828 
    105 H105       23.4852  -51.2157  -54.8674 H         1 UNK         0.0828 
    106 H106       26.2711  -49.6543  -53.2364 H         1 UNK         0.3005 
    107 H107       28.5751  -47.0394  -53.8454 H         1 UNK         0.1257 
    108 H108       26.5297  -47.3046  -51.5835 H         1 UNK         0.0775 
    109 H109       26.7318  -45.8878  -52.5762 H         1 UNK         0.0775 
    110 H110       27.7994  -43.9296  -51.5080 H         1 UNK         0.0840 
    111 H111       29.3751  -43.9215  -50.7683 H         1 UNK         0.0840 
    112 H112       28.5924  -48.8758  -51.7638 H         1 UNK         0.2987 
    113 H113       30.1366  -50.4723  -51.7154 H         1 UNK         0.0785 
    114 H114       29.8745  -52.8762  -52.3253 H         1 UNK         0.0798 
    115 H115       28.3313  -52.0475  -52.4358 H         1 UNK         0.0798 
    116 H116       29.2227  -52.4322  -53.9009 H         1 UNK         0.0798 
    117 H117       31.5368  -51.5913  -54.0161 H         1 UNK         0.3079 
    118 H118       33.8736  -51.1171  -54.1070 H         1 UNK         0.0794 
    119 H119       32.5063  -50.1515  -55.9622 H         1 UNK         0.0786 
    120 H120       34.1787  -49.6388  -56.1245 H         1 UNK         0.0786 
    121 H121       32.9686  -48.5232  -55.4943 H         1 UNK         0.0786 
    122 H122       34.5997  -48.2677  -53.6298 H         1 UNK         0.3032 
    123 H123       36.1875  -48.5932  -50.9675 H         1 UNK         0.1094 
    124 H124       38.4025  -49.3321  -52.9492 H         1 UNK         0.0794 
    125 H125       38.6417  -48.3945  -51.4746 H         1 UNK         0.0794 
    126 H126       38.1035  -50.0621  -51.3821 H         1 UNK         0.0794 
    127 H127       35.9998  -46.6295  -51.9499 H         1 UNK         0.3016 
@<TRIPOS>BOND
     1    1    2 1    
     2    1   67 1    
     3    1   68 1    
     4    1   69 1    
     5    2    3 2    
     6    2    4 am   BACKBONE|DICT|INTERRES
     7    4    5 1    
     8    4   70 1    
     9    5    6 1    
    10    5   65 1    
    11    5   71 1    
    12    6    7 1    
    13    6   72 1    
    14    6   73 1    
    15    7    8 1    
    16    8    9 1    
    17    8   74 1    
    18    8   75 1    
    19    9   10 ar   
    20    9   14 ar   
    21   10   11 ar   
    22   10   76 1    
    23   11   12 ar   
    24   11   48 1    
    25   12   13 ar   
    26   12   77 1    
    27   13   14 ar   
    28   13   15 1    
    29   14   78 1    
    30   15   16 1    
    31   15   79 1    
    32   15   80 1    
    33   16   17 1    
    34   17   18 1    
    35   17   81 1    
    36   17   82 1    
    37   18   19 1    
    38   18   22 1    
    39   18   83 1    
    40   19   20 am   BACKBONE|DICT|INTERRES
    41   19   21 2    
    42   20   84 1    
    43   20   85 1    
    44   22   23 am   BACKBONE|DICT|INTERRES
    45   22   86 1    
    46   23   24 2    
    47   23   25 1    
    48   25   26 1    
    49   25   27 1    
    50   25   87 1    
    51   26   88 1    
    52   26   89 1    
    53   26   90 1    
    54   27   28 am   BACKBONE|DICT|INTERRES
    55   27   91 1    
    56   28   29 2    
    57   28   30 1    
    58   30   31 1    
    59   30   32 1    
    60   30   92 1    
    61   31   93 1    
    62   31   94 1    
    63   31   95 1    
    64   32   33 am   BACKBONE|DICT|INTERRES
    65   32   96 1    
    66   33   34 2    
    67   33   35 1    
    68   35   36 1    
    69   35   37 1    
    70   35   97 1    
    71   36   98 1    
    72   36   99 1    
    73   36  100 1    
    74   37   38 am   BACKBONE|DICT|INTERRES
    75   37  101 1    
    76   38   39 2    
    77   38   40 1    
    78   40   41 1    
    79   40   42 1    
    80   40  102 1    
    81   41  103 1    
    82   41  104 1    
    83   41  105 1    
    84   42   43 am   BACKBONE|DICT|INTERRES
    85   42  106 1    
    86   43   44 2    
    87   43   45 1    
    88   45   46 1    
    89   45   49 1    
    90   45  107 1    
    91   46   47 1    
    92   46  108 1    
    93   46  109 1    
    94   47   48 1    
    95   48  110 1    
    96   48  111 1    
    97   49   50 am   BACKBONE|DICT|INTERRES
    98   49  112 1    
    99   50   51 2    
   100   50   52 1    
   101   52   53 1    
   102   52   54 1    
   103   52  113 1    
   104   53  114 1    
   105   53  115 1    
   106   53  116 1    
   107   54   55 am   BACKBONE|DICT|INTERRES
   108   54  117 1    
   109   55   56 2    
   110   55   57 1    
   111   57   58 1    
   112   57   59 1    
   113   57  118 1    
   114   58  119 1    
   115   58  120 1    
   116   58  121 1    
   117   59   60 am   BACKBONE|DICT|INTERRES
   118   59  122 1    
   119   60   61 2    
   120   60   62 1    
   121   62   63 1    
   122   62   64 1    
   123   62  123 1    
   124   63  124 1    
   125   63  125 1    
   126   63  126 1    
   127   64   65 am   BACKBONE|DICT|INTERRES
   128   64  127 1    
   129   65   66 2    
@<TRIPOS>SUBSTRUCTURE
     1 UNK         1 GROUP             0       ****    0 ROOT    
