@<TRIPOS>MOLECULE
3R134
127   129    1
SMALL
USER_CHARGES


@<TRIPOS>ATOM
      1 CA         33.8967  -46.3563  -50.5313 C.3       0 UNK        -0.1968 
      2 C          34.9135  -46.0224  -51.6135 C.2       0 UNK         0.4852 
      3 O          35.7386  -45.1281  -51.4198 O.2       0 UNK        -0.5359 
      4 N          34.8548  -46.7254  -52.7483 N.am      1 UNK        -0.4300 
      5 CA         35.7165  -46.5150  -53.9125 C.3       1 UNK         0.0863 
      6 C6         35.3860  -45.2309  -54.7297 C.3       11 UNK        -0.0953 
      7 S7         33.6103  -44.9868  -55.0918 S.3       11 UNK        -0.2369 
      8 C8         33.2619  -43.5185  -54.0763 C.3       11 UNK         0.0226 
      9 C9         31.7724  -43.2246  -54.0270 C.ar      11 UNK        -0.0699 
     10 C10        31.0562  -43.3847  -52.8379 C.ar      11 UNK        -0.0804 
     11 C11        29.6840  -43.1185  -52.7943 C.ar      11 UNK        -0.0871 
     12 C12        29.0249  -42.7073  -53.9583 C.ar      11 UNK        -0.1008 
     13 C13        29.7342  -42.5353  -55.1522 C.ar      11 UNK        -0.0735 
     14 C14        31.1099  -42.7820  -55.1738 C.ar      11 UNK        -0.0945 
     15 C15        29.0241  -42.0695  -56.4160 C.3       11 UNK         0.0169 
     16 S16        29.2354  -43.2631  -57.7721 S.3       11 UNK        -0.2669 
     17 C17        28.0790  -42.6055  -59.0210 C.3       11 UNK        -0.0850 
     18 CA         26.6486  -43.1852  -58.8723 C.3       10 UNK         0.0855 
     19 C          25.7169  -42.6483  -59.9921 C.2       10 UNK         0.5543 
     20 N          25.0669  -41.5150  -59.7660 N.am      10 UNK        -0.7343 
     21 O          25.6148  -43.2219  -61.0750 O.2       10 UNK        -0.5027 
     22 N          26.6714  -44.6510  -58.7957 N.am      10 UNK        -0.4495 
     23 C          25.6504  -45.4333  -58.4393 C.2       10 UNK         0.4903 
     24 O          24.5283  -45.0104  -58.1584 O.2       10 UNK        -0.4860 
     25 CA         25.9245  -46.9428  -58.3340 C.3       9 UNK         0.0227 
     26 CB         25.6412  -47.6600  -59.6677 C.3       9 UNK        -0.1964 
     27 N          27.2474  -47.2936  -57.7963 N.am      9 UNK        -0.4231 
     28 C          28.4634  -47.1871  -58.3548 C.2       9 UNK         0.5014 
     29 O          28.6751  -46.6578  -59.4466 O.2       9 UNK        -0.5270 
     30 CA         29.6446  -47.7897  -57.5660 C.3       8 UNK         0.0284 
     31 CB         30.3049  -46.7322  -56.6657 C.3       8 UNK        -0.1977 
     32 N          29.2549  -48.9457  -56.7524 N.am      8 UNK        -0.4342 
     33 C          28.8059  -50.1124  -57.2402 C.2       8 UNK         0.5039 
     34 O          28.7658  -50.3887  -58.4400 O.2       8 UNK        -0.5547 
     35 CA         28.2589  -51.1225  -56.2199 C.3       7 UNK         0.0281 
     36 CB         29.3926  -51.9525  -55.5994 C.3       7 UNK        -0.1963 
     37 N          27.5002  -50.4482  -55.1641 N.am      7 UNK        -0.4444 
     38 C          26.2251  -50.0523  -55.2859 C.2       7 UNK         0.5104 
     39 O          25.5288  -50.2822  -56.2744 O.2       7 UNK        -0.5100 
     40 CA         25.6173  -49.2584  -54.1140 C.3       6 UNK         0.0396 
     41 CB         24.8832  -50.2050  -53.1514 C.3       6 UNK        -0.1801 
     42 N          26.6019  -48.4753  -53.3627 N.am      6 UNK        -0.4747 
     43 C          27.2394  -47.3921  -53.8330 C.2       6 UNK         0.5012 
     44 O          27.0380  -46.9174  -54.9492 O.2       6 UNK        -0.5003 
     45 CA         28.3165  -46.7692  -52.9181 C.3       5 UNK         0.0782 
     46 C46        27.6686  -45.7164  -51.9861 C.3       11 UNK        -0.0868 
     47 S47        28.8671  -44.9392  -50.8513 S.3       11 UNK        -0.2515 
     48 C48        28.9296  -43.2308  -51.4765 C.3       11 UNK         0.0199 
     49 N          29.0774  -47.7814  -52.1683 N.am      5 UNK        -0.4607 
     50 C          29.7611  -48.7967  -52.7102 C.2       4 UNK         0.5031 
     51 O          29.7995  -49.0182  -53.9216 O.2       4 UNK        -0.5119 
     52 CA         30.4274  -49.7693  -51.7225 C.3       4 UNK         0.0263 
     53 CB         29.3687  -50.6930  -51.0953 C.3       4 UNK        -0.1967 
     54 N          31.4501  -50.6016  -52.3593 N.am      4 UNK        -0.4237 
     55 C          32.6397  -50.1621  -52.7867 C.2       3 UNK         0.4908 
     56 O          33.0368  -49.0026  -52.6344 O.2       3 UNK        -0.5102 
     57 CA         33.5739  -51.1852  -53.4665 C.3       3 UNK         0.0241 
     58 CB         32.9186  -52.5328  -53.8474 C.3       3 UNK        -0.1971 
     59 N          34.2530  -50.5675  -54.6070 N.am      3 UNK        -0.4139 
     60 C          33.6895  -50.0788  -55.7212 C.2       2 UNK         0.5016 
     61 O          32.5311  -50.3041  -56.0733 O.2       2 UNK        -0.5319 
     62 CA         34.5695  -49.1077  -56.5325 C.3       2 UNK         0.0286 
     63 CB         33.9171  -48.6870  -57.8631 C.3       2 UNK        -0.1963 
     64 N          34.8509  -47.9027  -55.7451 N.am      2 UNK        -0.4790 
     65 C          35.7214  -47.8137  -54.7311 C.2       1 UNK         0.5024 
     66 O          36.4751  -48.7327  -54.4038 O.2       1 UNK        -0.4888 
     67 H67        33.0904  -46.9835  -50.9106 H         1 UNK         0.0892 
     68 H68        34.3814  -46.8810  -49.7086 H         1 UNK         0.0892 
     69 H69        33.4508  -45.4423  -50.1396 H         1 UNK         0.0892 
     70 H70        34.1818  -47.4870  -52.8312 H         1 UNK         0.3107 
     71 H71        36.7401  -46.4055  -53.5469 H         1 UNK         0.0773 
     72 H72        35.9364  -45.2227  -55.6723 H         1 UNK         0.0680 
     73 H73        35.7549  -44.3618  -54.1833 H         1 UNK         0.0680 
     74 H74        33.7911  -42.6588  -54.4897 H         1 UNK         0.0650 
     75 H75        33.6538  -43.6726  -53.0700 H         1 UNK         0.0650 
     76 H76        31.5652  -43.7113  -51.9411 H         1 UNK         0.1397 
     77 H77        27.9631  -42.5034  -53.9309 H         1 UNK         0.1363 
     78 H78        31.6637  -42.6522  -56.0938 H         1 UNK         0.1355 
     79 H79        27.9588  -41.9282  -56.2276 H         1 UNK         0.0707 
     80 H80        29.4228  -41.1003  -56.7189 H         1 UNK         0.0707 
     81 H81        28.0639  -41.5155  -58.9602 H         1 UNK         0.1034 
     82 H82        28.4838  -42.8465  -60.0061 H         1 UNK         0.1034 
     83 H83        26.2495  -42.8357  -57.9179 H         1 UNK         0.0482 
     84 H84        24.4697  -41.1408  -60.4870 H         1 UNK         0.3460 
     85 H85        25.1499  -41.0313  -58.8852 H         1 UNK         0.3460 
     86 H86        27.5468  -45.1023  -59.0404 H         1 UNK         0.2989 
     87 H87        25.2154  -47.3329  -57.6020 H         1 UNK         0.0559 
     88 H88        24.6139  -47.4868  -59.9904 H         1 UNK         0.0848 
     89 H89        25.7752  -48.7378  -59.5729 H         1 UNK         0.0848 
     90 H90        26.2937  -47.3088  -60.4676 H         1 UNK         0.0848 
     91 H91        27.2286  -47.5984  -56.8282 H         1 UNK         0.3144 
     92 H92        30.3865  -48.1341  -58.2892 H         1 UNK         0.0727 
     93 H93        30.7224  -45.9207  -57.2626 H         1 UNK         0.0790 
     94 H94        29.5915  -46.2878  -55.9714 H         1 UNK         0.0790 
     95 H95        31.1220  -47.1572  -56.0815 H         1 UNK         0.0790 
     96 H96        29.3503  -48.8545  -55.7430 H         1 UNK         0.3215 
     97 H97        27.5939  -51.8080  -56.7503 H         1 UNK         0.0863 
     98 H98        29.0085  -52.6937  -54.8987 H         1 UNK         0.0808 
     99 H99        30.1056  -51.3226  -55.0689 H         1 UNK         0.0808 
    100 H100       29.9485  -52.4877  -56.3703 H         1 UNK         0.0808 
    101 H101       28.0265  -50.1498  -54.3532 H         1 UNK         0.3118 
    102 H102       24.8847  -48.5649  -54.5328 H         1 UNK         0.0546 
    103 H103       25.5652  -50.9154  -52.6824 H         1 UNK         0.0828 
    104 H104       24.1229  -50.7836  -53.6783 H         1 UNK         0.0828 
    105 H105       24.3755  -49.6527  -52.3606 H         1 UNK         0.0828 
    106 H106       26.8286  -48.7966  -52.4325 H         1 UNK         0.3005 
    107 H107       29.0276  -46.2536  -53.5679 H         1 UNK         0.1257 
    108 H108       26.8879  -46.1735  -51.3748 H         1 UNK         0.0775 
    109 H109       27.1738  -44.9418  -52.5756 H         1 UNK         0.0775 
    110 H110       27.9157  -42.8374  -51.5654 H         1 UNK         0.0840 
    111 H111       29.4292  -42.6075  -50.7335 H         1 UNK         0.0840 
    112 H112       29.0914  -47.6591  -51.1659 H         1 UNK         0.2987 
    113 H113       30.9041  -49.1847  -50.9326 H         1 UNK         0.0785 
    114 H114       29.8173  -51.3767  -50.3741 H         1 UNK         0.0798 
    115 H115       28.8560  -51.2918  -51.8496 H         1 UNK         0.0798 
    116 H116       28.6089  -50.1214  -50.5608 H         1 UNK         0.0798 
    117 H117       31.1983  -51.5588  -52.5534 H         1 UNK         0.3079 
    118 H118       34.3545  -51.3999  -52.7354 H         1 UNK         0.0794 
    119 H119       33.6440  -53.1957  -54.3193 H         1 UNK         0.0786 
    120 H120       32.0914  -52.4097  -54.5444 H         1 UNK         0.0786 
    121 H121       32.5410  -53.0559  -52.9683 H         1 UNK         0.0786 
    122 H122       35.1945  -50.2398  -54.4131 H         1 UNK         0.3032 
    123 H123       35.5079  -49.6187  -56.7602 H         1 UNK         0.1094 
    124 H124       32.9781  -48.1556  -57.7029 H         1 UNK         0.0794 
    125 H125       34.5756  -48.0376  -58.4401 H         1 UNK         0.0794 
    126 H126       33.6970  -49.5579  -58.4818 H         1 UNK         0.0794 
    127 H127       34.2428  -47.1085  -55.9023 H         1 UNK         0.3016 
@<TRIPOS>BOND
     1    1    2 1    
     2    1   67 1    
     3    1   68 1    
     4    1   69 1    
     5    2    3 2    
     6    2    4 am   BACKBONE|DICT|INTERRES
     7    4    5 1    
     8    4   70 1    
     9    5    6 1    
    10    5   65 1    
    11    5   71 1    
    12    6    7 1    
    13    6   72 1    
    14    6   73 1    
    15    7    8 1    
    16    8    9 1    
    17    8   74 1    
    18    8   75 1    
    19    9   10 ar   
    20    9   14 ar   
    21   10   11 ar   
    22   10   76 1    
    23   11   12 ar   
    24   11   48 1    
    25   12   13 ar   
    26   12   77 1    
    27   13   14 ar   
    28   13   15 1    
    29   14   78 1    
    30   15   16 1    
    31   15   79 1    
    32   15   80 1    
    33   16   17 1    
    34   17   18 1    
    35   17   81 1    
    36   17   82 1    
    37   18   19 1    
    38   18   22 1    
    39   18   83 1    
    40   19   20 am   BACKBONE|DICT|INTERRES
    41   19   21 2    
    42   20   84 1    
    43   20   85 1    
    44   22   23 am   BACKBONE|DICT|INTERRES
    45   22   86 1    
    46   23   24 2    
    47   23   25 1    
    48   25   26 1    
    49   25   27 1    
    50   25   87 1    
    51   26   88 1    
    52   26   89 1    
    53   26   90 1    
    54   27   28 am   BACKBONE|DICT|INTERRES
    55   27   91 1    
    56   28   29 2    
    57   28   30 1    
    58   30   31 1    
    59   30   32 1    
    60   30   92 1    
    61   31   93 1    
    62   31   94 1    
    63   31   95 1    
    64   32   33 am   BACKBONE|DICT|INTERRES
    65   32   96 1    
    66   33   34 2    
    67   33   35 1    
    68   35   36 1    
    69   35   37 1    
    70   35   97 1    
    71   36   98 1    
    72   36   99 1    
    73   36  100 1    
    74   37   38 am   BACKBONE|DICT|INTERRES
    75   37  101 1    
    76   38   39 2    
    77   38   40 1    
    78   40   41 1    
    79   40   42 1    
    80   40  102 1    
    81   41  103 1    
    82   41  104 1    
    83   41  105 1    
    84   42   43 am   BACKBONE|DICT|INTERRES
    85   42  106 1    
    86   43   44 2    
    87   43   45 1    
    88   45   46 1    
    89   45   49 1    
    90   45  107 1    
    91   46   47 1    
    92   46  108 1    
    93   46  109 1    
    94   47   48 1    
    95   48  110 1    
    96   48  111 1    
    97   49   50 am   BACKBONE|DICT|INTERRES
    98   49  112 1    
    99   50   51 2    
   100   50   52 1    
   101   52   53 1    
   102   52   54 1    
   103   52  113 1    
   104   53  114 1    
   105   53  115 1    
   106   53  116 1    
   107   54   55 am   BACKBONE|DICT|INTERRES
   108   54  117 1    
   109   55   56 2    
   110   55   57 1    
   111   57   58 1    
   112   57   59 1    
   113   57  118 1    
   114   58  119 1    
   115   58  120 1    
   116   58  121 1    
   117   59   60 am   BACKBONE|DICT|INTERRES
   118   59  122 1    
   119   60   61 2    
   120   60   62 1    
   121   62   63 1    
   122   62   64 1    
   123   62  123 1    
   124   63  124 1    
   125   63  125 1    
   126   63  126 1    
   127   64   65 am   BACKBONE|DICT|INTERRES
   128   64  127 1    
   129   65   66 2    
@<TRIPOS>SUBSTRUCTURE
     1 UNK         1 GROUP             0       ****    0 ROOT    
