@<TRIPOS>MOLECULE
3R134
127   129    1
SMALL
USER_CHARGES


@<TRIPOS>ATOM
      1 CA         38.7397  -46.7902  -51.6122 C.3       0 UNK        -0.1968 
      2 C          37.4126  -46.3186  -52.1881 C.2       0 UNK         0.4852 
      3 O          36.8645  -45.3228  -51.7154 O.2       0 UNK        -0.5359 
      4 N          36.8894  -47.0367  -53.1940 N.am      1 UNK        -0.4300 
      5 CA         35.6389  -46.7626  -53.9229 C.3       1 UNK         0.0863 
      6 C6         35.6173  -45.3461  -54.5683 C.3       11 UNK        -0.0953 
      7 S7         34.7389  -45.2867  -56.1669 S.3       11 UNK        -0.2369 
      8 C8         34.2200  -43.5441  -56.2361 C.3       11 UNK         0.0226 
      9 C9         32.7808  -43.3366  -55.7792 C.ar      11 UNK        -0.0699 
     10 C10        32.4615  -43.3196  -54.4175 C.ar      11 UNK        -0.0804 
     11 C11        31.1567  -43.0447  -53.9958 C.ar      11 UNK        -0.0871 
     12 C12        30.1718  -42.7692  -54.9489 C.ar      11 UNK        -0.1008 
     13 C13        30.4656  -42.8225  -56.3141 C.ar      11 UNK        -0.0735 
     14 C14        31.7725  -43.1075  -56.7223 C.ar      11 UNK        -0.0945 
     15 C15        29.3810  -42.5448  -57.3478 C.3       11 UNK         0.0169 
     16 S16        28.6034  -44.0775  -57.9533 S.3       11 UNK        -0.2669 
     17 C17        27.5330  -44.5330  -56.5433 C.3       11 UNK        -0.0850 
     18 CA         26.0125  -44.5204  -56.8350 C.3       10 UNK         0.0855 
     19 C          25.4680  -43.1086  -57.1970 C.2       10 UNK         0.5543 
     20 N          24.8153  -42.9208  -58.3377 N.am      10 UNK        -0.7343 
     21 O          25.6279  -42.1709  -56.4196 O.2       10 UNK        -0.5027 
     22 N          25.6582  -45.5937  -57.7700 N.am      10 UNK        -0.4495 
     23 C          24.4928  -46.2461  -57.8092 C.2       10 UNK         0.4903 
     24 O          23.5280  -45.9638  -57.0985 O.2       10 UNK        -0.4860 
     25 CA         24.3821  -47.4412  -58.7760 C.3       9 UNK         0.0227 
     26 CB         23.8220  -47.0020  -60.1432 C.3       9 UNK        -0.1964 
     27 N          25.6185  -48.2294  -58.9161 N.am      9 UNK        -0.4231 
     28 C          26.7874  -47.8810  -59.4750 C.2       9 UNK         0.5014 
     29 O          26.9817  -46.7919  -60.0172 O.2       9 UNK        -0.5270 
     30 CA         27.9388  -48.8978  -59.3721 C.3       8 UNK         0.0284 
     31 CB         29.3167  -48.2512  -59.6153 C.3       8 UNK        -0.1977 
     32 N          27.9470  -49.5789  -58.0716 N.am      8 UNK        -0.4342 
     33 C          27.3544  -50.7564  -57.8341 C.2       8 UNK         0.5039 
     34 O          26.6747  -51.3483  -58.6734 O.2       8 UNK        -0.5547 
     35 CA         27.5330  -51.3975  -56.4492 C.3       7 UNK         0.0281 
     36 CB         28.7542  -52.3315  -56.4489 C.3       7 UNK        -0.1963 
     37 N          27.6401  -50.4560  -55.3321 N.am      7 UNK        -0.4444 
     38 C          26.6186  -49.7370  -54.8450 C.2       7 UNK         0.5104 
     39 O          25.5209  -49.6497  -55.3962 O.2       7 UNK        -0.5100 
     40 CA         26.8421  -49.0355  -53.4941 C.3       6 UNK         0.0396 
     41 CB         26.8726  -50.0628  -52.3503 C.3       6 UNK        -0.1801 
     42 N          28.0885  -48.2727  -53.4888 N.am      6 UNK        -0.4747 
     43 C          28.1680  -46.9449  -53.6625 C.2       6 UNK         0.5012 
     44 O          27.1837  -46.2067  -53.7160 O.2       6 UNK        -0.5003 
     45 CA         29.5803  -46.3379  -53.8545 C.3       5 UNK         0.0782 
     46 C46        30.1499  -45.7784  -52.5247 C.3       11 UNK        -0.0868 
     47 S47        29.4513  -44.1529  -52.0808 S.3       11 UNK        -0.2515 
     48 C48        30.8168  -43.0207  -52.5102 C.3       11 UNK         0.0199 
     49 N          30.5293  -47.2585  -54.4908 N.am      5 UNK        -0.4607 
     50 C          30.3464  -47.9139  -55.6457 C.2       4 UNK         0.5031 
     51 O          29.3569  -47.7845  -56.3636 O.2       4 UNK        -0.5119 
     52 CA         31.3997  -48.9669  -56.0231 C.3       4 UNK         0.0263 
     53 CB         32.5035  -48.3466  -56.8893 C.3       4 UNK        -0.1967 
     54 N          31.9953  -49.6347  -54.8606 N.am      4 UNK        -0.4237 
     55 C          31.3219  -50.3773  -53.9684 C.2       3 UNK         0.4908 
     56 O          30.1094  -50.5842  -54.0223 O.2       3 UNK        -0.5102 
     57 CA         32.1339  -50.9399  -52.7925 C.3       3 UNK         0.0241 
     58 CB         33.0426  -52.0932  -53.2488 C.3       3 UNK        -0.1971 
     59 N          32.9324  -49.8983  -52.1434 N.am      3 UNK        -0.4139 
     60 C          32.4141  -48.9024  -51.4101 C.2       2 UNK         0.5016 
     61 O          31.2200  -48.8085  -51.1268 O.2       2 UNK        -0.5319 
     62 CA         33.3869  -47.8107  -50.9314 C.3       2 UNK         0.0286 
     63 CB         33.9597  -48.1660  -49.5502 C.3       2 UNK        -0.1963 
     64 N          34.4917  -47.5374  -51.8591 N.am      2 UNK        -0.4790 
     65 C          34.3562  -47.0670  -53.1091 C.2       1 UNK         0.5024 
     66 O          33.2575  -46.9076  -53.6377 O.2       1 UNK        -0.4888 
     67 H67        39.4924  -46.0095  -51.7193 H         1 UNK         0.0892 
     68 H68        38.6304  -47.0144  -50.5514 H         1 UNK         0.0892 
     69 H69        39.1079  -47.6859  -52.1120 H         1 UNK         0.0892 
     70 H70        37.3945  -47.8509  -53.5179 H         1 UNK         0.3107 
     71 H71        35.6388  -47.4948  -54.7319 H         1 UNK         0.0773 
     72 H72        35.2073  -44.6093  -53.8770 H         1 UNK         0.0680 
     73 H73        36.6356  -45.0138  -54.7759 H         1 UNK         0.0680 
     74 H74        34.3375  -43.1972  -57.2638 H         1 UNK         0.0650 
     75 H75        34.8924  -42.9279  -55.6376 H         1 UNK         0.0650 
     76 H76        33.2328  -43.5056  -53.6844 H         1 UNK         0.1397 
     77 H77        29.1711  -42.5262  -54.6200 H         1 UNK         0.1363 
     78 H78        32.0078  -43.1297  -57.7777 H         1 UNK         0.1355 
     79 H79        28.6166  -41.8825  -56.9377 H         1 UNK         0.0707 
     80 H80        29.8146  -42.0150  -58.1972 H         1 UNK         0.0707 
     81 H81        27.8230  -45.5389  -56.2423 H         1 UNK         0.1034 
     82 H82        27.7406  -43.9002  -55.6821 H         1 UNK         0.1034 
     83 H83        25.5280  -44.7664  -55.8878 H         1 UNK         0.0482 
     84 H84        24.4604  -42.0049  -58.5625 H         1 UNK         0.3460 
     85 H85        24.6842  -43.6881  -58.9769 H         1 UNK         0.3460 
     86 H86        26.3685  -45.8496  -58.4500 H         1 UNK         0.2989 
     87 H87        23.6570  -48.1264  -58.3340 H         1 UNK         0.0559 
     88 H88        24.4738  -46.2859  -60.6441 H         1 UNK         0.0848 
     89 H89        22.8486  -46.5236  -60.0270 H         1 UNK         0.0848 
     90 H90        23.6860  -47.8543  -60.8087 H         1 UNK         0.0848 
     91 H91        25.5908  -49.1413  -58.4783 H         1 UNK         0.3144 
     92 H92        27.7833  -49.6291  -60.1680 H         1 UNK         0.0727 
     93 H93        29.4964  -47.4135  -58.9406 H         1 UNK         0.0790 
     94 H94        29.3907  -47.8650  -60.6326 H         1 UNK         0.0790 
     95 H95        30.1251  -48.9703  -59.4827 H         1 UNK         0.0790 
     96 H96        28.4227  -49.0876  -57.3160 H         1 UNK         0.3215 
     97 H97        26.6487  -52.0132  -56.2691 H         1 UNK         0.0863 
     98 H98        28.8449  -52.8663  -55.5032 H         1 UNK         0.0808 
     99 H99        29.6827  -51.7851  -56.6135 H         1 UNK         0.0808 
    100 H100       28.6735  -53.0810  -57.2375 H         1 UNK         0.0808 
    101 H101       28.5183  -50.4739  -54.8148 H         1 UNK         0.3118 
    102 H102       25.9908  -48.3742  -53.3193 H         1 UNK         0.0546 
    103 H103       25.9593  -50.6592  -52.3365 H         1 UNK         0.0828 
    104 H104       26.9521  -49.5702  -51.3812 H         1 UNK         0.0828 
    105 H105       27.7125  -50.7527  -52.4422 H         1 UNK         0.0828 
    106 H106       28.9482  -48.8091  -53.4817 H         1 UNK         0.3005 
    107 H107       29.4773  -45.5089  -54.5555 H         1 UNK         0.1257 
    108 H108       31.2317  -45.6641  -52.5927 H         1 UNK         0.0775 
    109 H109       29.9819  -46.4730  -51.6998 H         1 UNK         0.0775 
    110 H110       30.5330  -42.0054  -52.2305 H         1 UNK         0.0840 
    111 H111       31.6887  -43.2729  -51.9043 H         1 UNK         0.0840 
    112 H112       31.4244  -47.3680  -54.0231 H         1 UNK         0.2987 
    113 H113       30.8954  -49.7295  -56.6189 H         1 UNK         0.0785 
    114 H114       33.0795  -47.6124  -56.3287 H         1 UNK         0.0798 
    115 H115       32.0815  -47.8369  -57.7568 H         1 UNK         0.0798 
    116 H116       33.1929  -49.1045  -57.2612 H         1 UNK         0.0798 
    117 H117       32.9818  -49.4851  -54.7137 H         1 UNK         0.3079 
    118 H118       31.4265  -51.3359  -52.0603 H         1 UNK         0.0794 
    119 H119       33.7999  -51.7630  -53.9607 H         1 UNK         0.0786 
    120 H120       32.4601  -52.8784  -53.7331 H         1 UNK         0.0786 
    121 H121       33.5559  -52.5496  -52.4022 H         1 UNK         0.0786 
    122 H122       33.9282  -49.9016  -52.3085 H         1 UNK         0.3032 
    123 H123       32.8076  -46.8897  -50.8333 H         1 UNK         0.1094 
    124 H124       34.5678  -47.3534  -49.1518 H         1 UNK         0.0794 
    125 H125       33.1596  -48.3507  -48.8318 H         1 UNK         0.0794 
    126 H126       34.5786  -49.0634  -49.5867 H         1 UNK         0.0794 
    127 H127       35.4279  -47.6335  -51.4936 H         1 UNK         0.3016 
@<TRIPOS>BOND
     1    1    2 1    
     2    1   67 1    
     3    1   68 1    
     4    1   69 1    
     5    2    3 2    
     6    2    4 am   BACKBONE|DICT|INTERRES
     7    4    5 1    
     8    4   70 1    
     9    5    6 1    
    10    5   65 1    
    11    5   71 1    
    12    6    7 1    
    13    6   72 1    
    14    6   73 1    
    15    7    8 1    
    16    8    9 1    
    17    8   74 1    
    18    8   75 1    
    19    9   10 ar   
    20    9   14 ar   
    21   10   11 ar   
    22   10   76 1    
    23   11   12 ar   
    24   11   48 1    
    25   12   13 ar   
    26   12   77 1    
    27   13   14 ar   
    28   13   15 1    
    29   14   78 1    
    30   15   16 1    
    31   15   79 1    
    32   15   80 1    
    33   16   17 1    
    34   17   18 1    
    35   17   81 1    
    36   17   82 1    
    37   18   19 1    
    38   18   22 1    
    39   18   83 1    
    40   19   20 am   BACKBONE|DICT|INTERRES
    41   19   21 2    
    42   20   84 1    
    43   20   85 1    
    44   22   23 am   BACKBONE|DICT|INTERRES
    45   22   86 1    
    46   23   24 2    
    47   23   25 1    
    48   25   26 1    
    49   25   27 1    
    50   25   87 1    
    51   26   88 1    
    52   26   89 1    
    53   26   90 1    
    54   27   28 am   BACKBONE|DICT|INTERRES
    55   27   91 1    
    56   28   29 2    
    57   28   30 1    
    58   30   31 1    
    59   30   32 1    
    60   30   92 1    
    61   31   93 1    
    62   31   94 1    
    63   31   95 1    
    64   32   33 am   BACKBONE|DICT|INTERRES
    65   32   96 1    
    66   33   34 2    
    67   33   35 1    
    68   35   36 1    
    69   35   37 1    
    70   35   97 1    
    71   36   98 1    
    72   36   99 1    
    73   36  100 1    
    74   37   38 am   BACKBONE|DICT|INTERRES
    75   37  101 1    
    76   38   39 2    
    77   38   40 1    
    78   40   41 1    
    79   40   42 1    
    80   40  102 1    
    81   41  103 1    
    82   41  104 1    
    83   41  105 1    
    84   42   43 am   BACKBONE|DICT|INTERRES
    85   42  106 1    
    86   43   44 2    
    87   43   45 1    
    88   45   46 1    
    89   45   49 1    
    90   45  107 1    
    91   46   47 1    
    92   46  108 1    
    93   46  109 1    
    94   47   48 1    
    95   48  110 1    
    96   48  111 1    
    97   49   50 am   BACKBONE|DICT|INTERRES
    98   49  112 1    
    99   50   51 2    
   100   50   52 1    
   101   52   53 1    
   102   52   54 1    
   103   52  113 1    
   104   53  114 1    
   105   53  115 1    
   106   53  116 1    
   107   54   55 am   BACKBONE|DICT|INTERRES
   108   54  117 1    
   109   55   56 2    
   110   55   57 1    
   111   57   58 1    
   112   57   59 1    
   113   57  118 1    
   114   58  119 1    
   115   58  120 1    
   116   58  121 1    
   117   59   60 am   BACKBONE|DICT|INTERRES
   118   59  122 1    
   119   60   61 2    
   120   60   62 1    
   121   62   63 1    
   122   62   64 1    
   123   62  123 1    
   124   63  124 1    
   125   63  125 1    
   126   63  126 1    
   127   64   65 am   BACKBONE|DICT|INTERRES
   128   64  127 1    
   129   65   66 2    
@<TRIPOS>SUBSTRUCTURE
     1 UNK         1 GROUP             0       ****    0 ROOT    
