@<TRIPOS>MOLECULE
3R134
127   129    1
SMALL
USER_CHARGES


@<TRIPOS>ATOM
      1 CA         33.8041  -44.3358  -50.5685 C.3       0 UNK        -0.1968 
      2 C          34.2156  -44.6949  -51.9886 C.2       0 UNK         0.4852 
      3 O          34.6257  -43.8152  -52.7457 O.2       0 UNK        -0.5359 
      4 N          34.1128  -45.9777  -52.3486 N.am      1 UNK        -0.4300 
      5 CA         34.4484  -46.5297  -53.6600 C.3       1 UNK         0.0863 
      6 C6         33.2593  -46.4328  -54.6562 C.3       11 UNK        -0.0953 
      7 S7         33.7759  -45.9384  -56.3336 S.3       11 UNK        -0.2369 
      8 C8         33.6265  -44.1204  -56.2731 C.3       11 UNK         0.0226 
      9 C9         32.1929  -43.6594  -56.0471 C.ar      11 UNK        -0.0699 
     10 C10        31.7982  -43.1855  -54.7943 C.ar      11 UNK        -0.0804 
     11 C11        30.4724  -42.8200  -54.5594 C.ar      11 UNK        -0.0871 
     12 C12        29.5460  -42.8801  -55.6030 C.ar      11 UNK        -0.1008 
     13 C13        29.9214  -43.3577  -56.8631 C.ar      11 UNK        -0.0735 
     14 C14        31.2524  -43.7352  -57.0776 C.ar      11 UNK        -0.0945 
     15 C15        28.9014  -43.5744  -57.9778 C.3       11 UNK         0.0169 
     16 S16        27.6753  -42.2383  -58.1973 S.3       11 UNK        -0.2669 
     17 C17        26.2358  -42.5641  -57.1002 C.3       11 UNK        -0.0850 
     18 CA         26.0983  -43.9302  -56.3553 C.3       10 UNK         0.0855 
     19 C          24.9659  -43.9029  -55.2836 C.2       10 UNK         0.5543 
     20 N          24.1656  -44.9507  -55.1283 N.am      10 UNK        -0.7343 
     21 O          24.8339  -42.9275  -54.5491 O.2       10 UNK        -0.5027 
     22 N          26.0730  -45.1183  -57.2235 N.am      10 UNK        -0.4495 
     23 C          25.2332  -45.3941  -58.2281 C.2       10 UNK         0.4903 
     24 O          24.3521  -44.6270  -58.6172 O.2       10 UNK        -0.4860 
     25 CA         25.3652  -46.7914  -58.8701 C.3       9 UNK         0.0227 
     26 CB         24.9493  -46.8113  -60.3568 C.3       9 UNK        -0.1964 
     27 N          26.6766  -47.4242  -58.6596 N.am      9 UNK        -0.4231 
     28 C          27.8591  -47.0697  -59.1923 C.2       9 UNK         0.5014 
     29 O          27.9936  -46.1547  -60.0049 O.2       9 UNK        -0.5270 
     30 CA         29.1129  -47.8509  -58.7437 C.3       8 UNK         0.0284 
     31 CB         30.2498  -46.9101  -58.3080 C.3       8 UNK        -0.1977 
     32 N          28.8366  -48.7715  -57.6420 N.am      8 UNK        -0.4342 
     33 C          28.5089  -50.0622  -57.7755 C.2       8 UNK         0.5039 
     34 O          28.4555  -50.6493  -58.8565 O.2       8 UNK        -0.5547 
     35 CA         28.1508  -50.8214  -56.4865 C.3       7 UNK         0.0281 
     36 CB         29.3668  -51.6059  -55.9762 C.3       7 UNK        -0.1963 
     37 N          27.6476  -49.9491  -55.4188 N.am      7 UNK        -0.4444 
     38 C          26.4714  -49.3066  -55.4643 C.2       7 UNK         0.5104 
     39 O          25.6936  -49.3753  -56.4161 O.2       7 UNK        -0.5100 
     40 CA         26.1238  -48.3893  -54.2795 C.3       6 UNK         0.0396 
     41 CB         25.4377  -49.1907  -53.1628 C.3       6 UNK        -0.1801 
     42 N          27.2693  -47.6616  -53.7256 N.am      6 UNK        -0.4747 
     43 C          28.0472  -46.8071  -54.4071 C.2       6 UNK         0.5012 
     44 O          27.9256  -46.5855  -55.6124 O.2       6 UNK        -0.5003 
     45 CA         29.1686  -46.1102  -53.6109 C.3       5 UNK         0.0782 
     46 C46        28.6089  -44.8629  -52.8785 C.3       11 UNK        -0.0868 
     47 S47        29.9158  -43.8766  -52.0669 S.3       11 UNK        -0.2515 
     48 C48        30.0329  -42.4204  -53.1602 C.3       11 UNK         0.0199 
     49 N          29.8598  -47.0177  -52.6837 N.am      5 UNK        -0.4607 
     50 C          30.4692  -48.1638  -53.0148 C.2       4 UNK         0.5031 
     51 O          30.4757  -48.6260  -54.1575 O.2       4 UNK        -0.5119 
     52 CA         31.2065  -48.8799  -51.8670 C.3       4 UNK         0.0263 
     53 CB         30.2243  -49.4111  -50.8010 C.3       4 UNK        -0.1967 
     54 N          32.1207  -49.9284  -52.3424 N.am      4 UNK        -0.4237 
     55 C          31.8144  -51.1158  -52.8926 C.2       3 UNK         0.4908 
     56 O          30.6759  -51.5818  -52.9457 O.2       3 UNK        -0.5102 
     57 CA         32.9883  -51.9070  -53.4976 C.3       3 UNK         0.0241 
     58 CB         32.5508  -52.9511  -54.5435 C.3       3 UNK        -0.1971 
     59 N          33.9606  -50.9908  -54.0970 N.am      3 UNK        -0.4139 
     60 C          35.2880  -51.0754  -53.9557 C.2       2 UNK         0.5016 
     61 O          35.8610  -52.0077  -53.3900 O.2       2 UNK        -0.5319 
     62 CA         36.1273  -49.9088  -54.5142 C.3       2 UNK         0.0286 
     63 CB         36.6016  -50.2305  -55.9408 C.3       2 UNK        -0.1963 
     64 N          35.4778  -48.5874  -54.5113 N.am      2 UNK        -0.4790 
     65 C          34.9273  -47.9772  -53.4517 C.2       1 UNK         0.5024 
     66 O          34.7681  -48.5185  -52.3528 O.2       1 UNK        -0.4888 
     67 H67        33.4853  -45.2104  -50.0018 H         1 UNK         0.0892 
     68 H68        34.6378  -43.8739  -50.0405 H         1 UNK         0.0892 
     69 H69        32.9769  -43.6265  -50.5889 H         1 UNK         0.0892 
     70 H70        33.8850  -46.6850  -51.6613 H         1 UNK         0.3107 
     71 H71        35.3051  -45.9711  -54.0441 H         1 UNK         0.0773 
     72 H72        32.7306  -47.3820  -54.7476 H         1 UNK         0.0680 
     73 H73        32.5049  -45.7350  -54.2964 H         1 UNK         0.0680 
     74 H74        33.9932  -43.7066  -57.2133 H         1 UNK         0.0650 
     75 H75        34.2844  -43.7346  -55.4930 H         1 UNK         0.0650 
     76 H76        32.5126  -43.1415  -53.9853 H         1 UNK         0.1397 
     77 H77        28.5264  -42.5825  -55.4164 H         1 UNK         0.1363 
     78 H78        31.5557  -44.1249  -58.0396 H         1 UNK         0.1355 
     79 H79        29.4250  -43.6701  -58.9302 H         1 UNK         0.0707 
     80 H80        28.4207  -44.5330  -57.8227 H         1 UNK         0.0707 
     81 H81        25.3358  -42.3804  -57.6884 H         1 UNK         0.1034 
     82 H82        26.2537  -41.7556  -56.3674 H         1 UNK         0.1034 
     83 H83        26.9970  -44.0673  -55.7613 H         1 UNK         0.0482 
     84 H84        24.2575  -45.7549  -55.7258 H         1 UNK         0.3460 
     85 H85        23.4462  -44.9212  -54.4232 H         1 UNK         0.3460 
     86 H86        26.7381  -45.8337  -56.9459 H         1 UNK         0.2989 
     87 H87        24.6559  -47.4232  -58.3338 H         1 UNK         0.0559 
     88 H88        25.5461  -46.1230  -60.9557 H         1 UNK         0.0848 
     89 H89        23.9059  -46.5163  -60.4741 H         1 UNK         0.0848 
     90 H90        25.0522  -47.8079  -60.7858 H         1 UNK         0.0848 
     91 H91        26.6718  -48.1934  -57.9998 H         1 UNK         0.3144 
     92 H92        29.4605  -48.4119  -59.6135 H         1 UNK         0.0727 
     93 H93        31.1618  -47.4667  -58.0912 H         1 UNK         0.0790 
     94 H94        29.9873  -46.3503  -57.4104 H         1 UNK         0.0790 
     95 H95        30.4925  -46.1900  -59.0901 H         1 UNK         0.0790 
     96 H96        28.8279  -48.3648  -56.7141 H         1 UNK         0.3215 
     97 H97        27.3638  -51.5363  -56.7367 H         1 UNK         0.0863 
     98 H98        30.1787  -50.9383  -55.6852 H         1 UNK         0.0808 
     99 H99        29.7531  -52.2760  -56.7453 H         1 UNK         0.0808 
    100 H100       29.1102  -52.2194  -55.1125 H         1 UNK         0.0808 
    101 H101       28.2578  -49.7973  -54.6260 H         1 UNK         0.3118 
    102 H102       25.4145  -47.6440  -54.6444 H         1 UNK         0.0546 
    103 H103       25.0856  -48.5380  -52.3638 H         1 UNK         0.0828 
    104 H104       26.1088  -49.9298  -52.7232 H         1 UNK         0.0828 
    105 H105       24.5680  -49.7272  -53.5453 H         1 UNK         0.0828 
    106 H106       27.4620  -47.7980  -52.7437 H         1 UNK         0.3005 
    107 H107       29.9058  -45.7762  -54.3453 H         1 UNK         0.1257 
    108 H108       27.8923  -45.1619  -52.1111 H         1 UNK         0.0775 
    109 H109       28.0529  -44.2218  -53.5638 H         1 UNK         0.0775 
    110 H110       29.0725  -41.9029  -53.1832 H         1 UNK         0.0840 
    111 H111       30.7512  -41.7154  -52.7391 H         1 UNK         0.0840 
    112 H112       29.9156  -46.6950  -51.7285 H         1 UNK         0.2987 
    113 H113       31.8453  -48.1355  -51.3897 H         1 UNK         0.0785 
    114 H114       30.7459  -49.9740  -50.0269 H         1 UNK         0.0798 
    115 H115       29.7009  -48.5936  -50.3044 H         1 UNK         0.0798 
    116 H116       29.4632  -50.0620  -51.2324 H         1 UNK         0.0798 
    117 H117       33.1007  -49.6634  -52.3341 H         1 UNK         0.3079 
    118 H118       33.4465  -52.4377  -52.6604 H         1 UNK         0.0794 
    119 H119       31.8206  -53.6472  -54.1289 H         1 UNK         0.0786 
    120 H120       33.3998  -53.5425  -54.8865 H         1 UNK         0.0786 
    121 H121       32.1000  -52.4799  -55.4165 H         1 UNK         0.0786 
    122 H122       33.5796  -50.1917  -54.5851 H         1 UNK         0.3032 
    123 H123       37.0089  -49.8287  -53.8744 H         1 UNK         0.1094 
    124 H124       35.7677  -50.2759  -56.6425 H         1 UNK         0.0794 
    125 H125       37.3074  -49.4832  -56.3041 H         1 UNK         0.0794 
    126 H126       37.1102  -51.1953  -55.9765 H         1 UNK         0.0794 
    127 H127       35.5267  -48.0690  -55.3782 H         1 UNK         0.3016 
@<TRIPOS>BOND
     1    1    2 1    
     2    1   67 1    
     3    1   68 1    
     4    1   69 1    
     5    2    3 2    
     6    2    4 am   BACKBONE|DICT|INTERRES
     7    4    5 1    
     8    4   70 1    
     9    5    6 1    
    10    5   65 1    
    11    5   71 1    
    12    6    7 1    
    13    6   72 1    
    14    6   73 1    
    15    7    8 1    
    16    8    9 1    
    17    8   74 1    
    18    8   75 1    
    19    9   10 ar   
    20    9   14 ar   
    21   10   11 ar   
    22   10   76 1    
    23   11   12 ar   
    24   11   48 1    
    25   12   13 ar   
    26   12   77 1    
    27   13   14 ar   
    28   13   15 1    
    29   14   78 1    
    30   15   16 1    
    31   15   79 1    
    32   15   80 1    
    33   16   17 1    
    34   17   18 1    
    35   17   81 1    
    36   17   82 1    
    37   18   19 1    
    38   18   22 1    
    39   18   83 1    
    40   19   20 am   BACKBONE|DICT|INTERRES
    41   19   21 2    
    42   20   84 1    
    43   20   85 1    
    44   22   23 am   BACKBONE|DICT|INTERRES
    45   22   86 1    
    46   23   24 2    
    47   23   25 1    
    48   25   26 1    
    49   25   27 1    
    50   25   87 1    
    51   26   88 1    
    52   26   89 1    
    53   26   90 1    
    54   27   28 am   BACKBONE|DICT|INTERRES
    55   27   91 1    
    56   28   29 2    
    57   28   30 1    
    58   30   31 1    
    59   30   32 1    
    60   30   92 1    
    61   31   93 1    
    62   31   94 1    
    63   31   95 1    
    64   32   33 am   BACKBONE|DICT|INTERRES
    65   32   96 1    
    66   33   34 2    
    67   33   35 1    
    68   35   36 1    
    69   35   37 1    
    70   35   97 1    
    71   36   98 1    
    72   36   99 1    
    73   36  100 1    
    74   37   38 am   BACKBONE|DICT|INTERRES
    75   37  101 1    
    76   38   39 2    
    77   38   40 1    
    78   40   41 1    
    79   40   42 1    
    80   40  102 1    
    81   41  103 1    
    82   41  104 1    
    83   41  105 1    
    84   42   43 am   BACKBONE|DICT|INTERRES
    85   42  106 1    
    86   43   44 2    
    87   43   45 1    
    88   45   46 1    
    89   45   49 1    
    90   45  107 1    
    91   46   47 1    
    92   46  108 1    
    93   46  109 1    
    94   47   48 1    
    95   48  110 1    
    96   48  111 1    
    97   49   50 am   BACKBONE|DICT|INTERRES
    98   49  112 1    
    99   50   51 2    
   100   50   52 1    
   101   52   53 1    
   102   52   54 1    
   103   52  113 1    
   104   53  114 1    
   105   53  115 1    
   106   53  116 1    
   107   54   55 am   BACKBONE|DICT|INTERRES
   108   54  117 1    
   109   55   56 2    
   110   55   57 1    
   111   57   58 1    
   112   57   59 1    
   113   57  118 1    
   114   58  119 1    
   115   58  120 1    
   116   58  121 1    
   117   59   60 am   BACKBONE|DICT|INTERRES
   118   59  122 1    
   119   60   61 2    
   120   60   62 1    
   121   62   63 1    
   122   62   64 1    
   123   62  123 1    
   124   63  124 1    
   125   63  125 1    
   126   63  126 1    
   127   64   65 am   BACKBONE|DICT|INTERRES
   128   64  127 1    
   129   65   66 2    
@<TRIPOS>SUBSTRUCTURE
     1 UNK         1 GROUP             0       ****    0 ROOT    
