@<TRIPOS>MOLECULE
3R134
127   129    1
SMALL
USER_CHARGES


@<TRIPOS>ATOM
      1 CA         34.3444  -44.2524  -50.3592 C.3       0 UNK        -0.1968 
      2 C          35.3808  -45.1455  -51.0264 C.2       0 UNK         0.4852 
      3 O          36.3158  -45.5990  -50.3640 O.2       0 UNK        -0.5359 
      4 N          35.2218  -45.3945  -52.3319 N.am      1 UNK        -0.4300 
      5 CA         36.0450  -46.3103  -53.1270 C.3       1 UNK         0.0863 
      6 C6         36.1033  -45.8641  -54.6145 C.3       11 UNK        -0.0953 
      7 S7         34.4720  -45.8440  -55.4391 S.3       11 UNK        -0.2369 
      8 C8         34.1801  -44.0643  -55.6752 C.3       11 UNK         0.0226 
      9 C9         32.7169  -43.7270  -55.4447 C.ar      11 UNK        -0.0699 
     10 C10        32.3022  -43.2275  -54.2079 C.ar      11 UNK        -0.0804 
     11 C11        30.9566  -42.9312  -53.9780 C.ar      11 UNK        -0.0871 
     12 C12        30.0274  -43.1008  -55.0077 C.ar      11 UNK        -0.1008 
     13 C13        30.4256  -43.6263  -56.2411 C.ar      11 UNK        -0.0735 
     14 C14        31.7738  -43.9312  -56.4561 C.ar      11 UNK        -0.0945 
     15 C15        29.3987  -43.8929  -57.3313 C.3       11 UNK         0.0169 
     16 S16        28.2407  -45.2108  -56.8388 S.3       11 UNK        -0.2669 
     17 C17        26.7537  -44.2465  -56.3732 C.3       11 UNK        -0.0850 
     18 CA         25.6131  -44.3446  -57.4203 C.3       10 UNK         0.0855 
     19 C          25.9169  -43.4921  -58.6896 C.2       10 UNK         0.5543 
     20 N          26.0917  -44.0764  -59.8700 N.am      10 UNK        -0.7343 
     21 O          25.9886  -42.2692  -58.5969 O.2       10 UNK        -0.5027 
     22 N          25.2724  -45.7482  -57.6767 N.am      10 UNK        -0.4495 
     23 C          24.1763  -46.2006  -58.2942 C.2       10 UNK         0.4903 
     24 O          23.2155  -45.4910  -58.5950 O.2       10 UNK        -0.4860 
     25 CA         24.1741  -47.7041  -58.6413 C.3       9 UNK         0.0227 
     26 CB         23.2657  -48.0359  -59.8442 C.3       9 UNK        -0.1964 
     27 N          25.5262  -48.2554  -58.8347 N.am      9 UNK        -0.4231 
     28 C          26.4372  -47.8760  -59.7491 C.2       9 UNK         0.5014 
     29 O          26.2261  -46.9964  -60.5859 O.2       9 UNK        -0.5270 
     30 CA         27.8282  -48.5425  -59.7028 C.3       8 UNK         0.0284 
     31 CB         28.9585  -47.5263  -59.9516 C.3       8 UNK        -0.1977 
     32 N          28.0804  -49.2281  -58.4322 N.am      8 UNK        -0.4342 
     33 C          27.8565  -50.5285  -58.2061 C.2       8 UNK         0.5039 
     34 O          27.4524  -51.3141  -59.0639 O.2       8 UNK        -0.5547 
     35 CA         28.0957  -51.0387  -56.7739 C.3       7 UNK         0.0281 
     36 CB         29.4996  -51.6508  -56.6600 C.3       7 UNK        -0.1963 
     37 N          27.9001  -50.0328  -55.7170 N.am      7 UNK        -0.4444 
     38 C          26.7232  -49.4425  -55.4558 C.2       7 UNK         0.5104 
     39 O          25.7337  -49.5662  -56.1783 O.2       7 UNK        -0.5100 
     40 CA         26.5999  -48.5840  -54.1900 C.3       6 UNK         0.0396 
     41 CB         26.2630  -49.4632  -52.9737 C.3       6 UNK        -0.1801 
     42 N          27.7889  -47.7786  -53.8982 N.am      6 UNK        -0.4747 
     43 C          27.7375  -46.5498  -53.3553 C.2       6 UNK         0.5012 
     44 O          26.6789  -45.9590  -53.1313 O.2       6 UNK        -0.5003 
     45 CA         29.0768  -45.8672  -52.9811 C.3       5 UNK         0.0782 
     46 C46        28.8846  -44.7127  -51.9529 C.3       11 UNK        -0.0868 
     47 S47        30.4302  -43.8790  -51.4458 S.3       11 UNK        -0.2515 
     48 C48        30.5098  -42.4716  -52.6004 C.3       11 UNK         0.0199 
     49 N          30.1098  -46.8366  -52.6046 N.am      5 UNK        -0.4607 
     50 C          30.0758  -47.7006  -51.5813 C.2       4 UNK         0.5031 
     51 O          29.1880  -47.7208  -50.7276 O.2       4 UNK        -0.5119 
     52 CA         31.2185  -48.7359  -51.5217 C.3       4 UNK         0.0263 
     53 CB         30.7489  -50.0838  -50.9349 C.3       4 UNK        -0.1967 
     54 N          31.9067  -48.9540  -52.8045 N.am      4 UNK        -0.4237 
     55 C          31.3663  -49.3815  -53.9597 C.2       3 UNK         0.4908 
     56 O          30.1590  -49.5786  -54.1138 O.2       3 UNK        -0.5102 
     57 CA         32.2992  -49.5704  -55.1721 C.3       3 UNK         0.0241 
     58 CB         31.9716  -48.5292  -56.2576 C.3       3 UNK        -0.1971 
     59 N          33.7249  -49.4980  -54.8412 N.am      3 UNK        -0.4139 
     60 C          34.4082  -50.4508  -54.1883 C.2       2 UNK         0.5016 
     61 O          33.9319  -51.5466  -53.8912 O.2       2 UNK        -0.5319 
     62 CA         35.8551  -50.1250  -53.7616 C.3       2 UNK         0.0286 
     63 CB         36.8578  -50.8353  -54.6857 C.3       2 UNK        -0.1963 
     64 N          36.1838  -48.6929  -53.7129 N.am      2 UNK        -0.4790 
     65 C          35.5642  -47.7715  -52.9598 C.2       1 UNK         0.5024 
     66 O          34.6209  -48.0420  -52.2108 O.2       1 UNK        -0.4888 
     67 H67        33.5873  -43.9066  -51.0643 H         1 UNK         0.0892 
     68 H68        34.8272  -43.3772  -49.9227 H         1 UNK         0.0892 
     69 H69        33.8376  -44.7975  -49.5614 H         1 UNK         0.0892 
     70 H70        34.4099  -45.0347  -52.8108 H         1 UNK         0.3107 
     71 H71        37.0656  -46.2787  -52.7393 H         1 UNK         0.0773 
     72 H72        36.7663  -46.5103  -55.1918 H         1 UNK         0.0680 
     73 H73        36.5606  -44.8759  -54.6778 H         1 UNK         0.0680 
     74 H74        34.8020  -43.4794  -54.9963 H         1 UNK         0.0650 
     75 H75        34.4785  -43.7820  -56.6857 H         1 UNK         0.0650 
     76 H76        33.0218  -43.0869  -53.4138 H         1 UNK         0.1397 
     77 H77        28.9852  -42.8744  -54.8322 H         1 UNK         0.1363 
     78 H78        32.0915  -44.3410  -57.4052 H         1 UNK         0.1355 
     79 H79        28.8653  -42.9726  -57.5724 H         1 UNK         0.0707 
     80 H80        29.8927  -44.2033  -58.2532 H         1 UNK         0.0707 
     81 H81        27.0122  -43.2050  -56.1749 H         1 UNK         0.1034 
     82 H82        26.3922  -44.6336  -55.4205 H         1 UNK         0.1034 
     83 H83        24.7285  -43.8884  -56.9720 H         1 UNK         0.0482 
     84 H84        26.0472  -45.0847  -59.9708 H         1 UNK         0.3460 
     85 H85        26.2825  -43.5040  -60.6763 H         1 UNK         0.3460 
     86 H86        26.0124  -46.4055  -57.4824 H         1 UNK         0.2989 
     87 H87        23.7634  -48.2134  -57.7682 H         1 UNK         0.0559 
     88 H88        22.2309  -47.7565  -59.6424 H         1 UNK         0.0848 
     89 H89        23.2735  -49.1032  -60.0652 H         1 UNK         0.0848 
     90 H90        23.5748  -47.5041  -60.7448 H         1 UNK         0.0848 
     91 H91        25.7951  -48.9580  -58.1529 H         1 UNK         0.3144 
     92 H92        27.8532  -49.2657  -60.5205 H         1 UNK         0.0727 
     93 H93        28.9601  -46.7296  -59.2091 H         1 UNK         0.0790 
     94 H94        28.8567  -47.0563  -60.9307 H         1 UNK         0.0790 
     95 H95        29.9365  -48.0075  -59.9284 H         1 UNK         0.0790 
     96 H96        28.3990  -48.6586  -57.6610 H         1 UNK         0.3215 
     97 H97        27.3695  -51.8341  -56.5921 H         1 UNK         0.0863 
     98 H98        29.7051  -52.0057  -55.6498 H         1 UNK         0.0808 
     99 H99        30.2700  -50.9318  -56.9339 H         1 UNK         0.0808 
    100 H100       29.6051  -52.5043  -57.3311 H         1 UNK         0.0808 
    101 H101       28.6809  -49.8955  -55.0767 H         1 UNK         0.3118 
    102 H102       25.7508  -47.9206  -54.3689 H         1 UNK         0.0546 
    103 H103       27.0898  -50.1269  -52.7171 H         1 UNK         0.0828 
    104 H104       25.3886  -50.0860  -53.1677 H         1 UNK         0.0828 
    105 H105       26.0394  -48.8559  -52.0965 H         1 UNK         0.0828 
    106 H106       28.6915  -48.2261  -54.0234 H         1 UNK         0.3005 
    107 H107       29.4275  -45.4275  -53.9128 H         1 UNK         0.1257 
    108 H108       28.4112  -45.0955  -51.0471 H         1 UNK         0.0775 
    109 H109       28.2000  -43.9604  -52.3486 H         1 UNK         0.0775 
    110 H110       31.2193  -41.7379  -52.2148 H         1 UNK         0.0840 
    111 H111       29.5439  -41.9662  -52.6450 H         1 UNK         0.0840 
    112 H112       30.8961  -46.8968  -53.2341 H         1 UNK         0.2987 
    113 H113       31.9664  -48.3197  -50.8449 H         1 UNK         0.0785 
    114 H114       31.5671  -50.8025  -50.8892 H         1 UNK         0.0798 
    115 H115       29.9476  -50.5246  -51.5292 H         1 UNK         0.0798 
    116 H116       30.3708  -49.9612  -49.9192 H         1 UNK         0.0798 
    117 H117       32.9052  -48.7642  -52.7806 H         1 UNK         0.3079 
    118 H118       32.1042  -50.5650  -55.5758 H         1 UNK         0.0794 
    119 H119       32.0980  -47.5097  -55.8930 H         1 UNK         0.0786 
    120 H120       30.9377  -48.6196  -56.5925 H         1 UNK         0.0786 
    121 H121       32.6056  -48.6542  -57.1355 H         1 UNK         0.0786 
    122 H122       34.1992  -48.6315  -55.0536 H         1 UNK         0.3032 
    123 H123       35.9793  -50.5217  -52.7513 H         1 UNK         0.1094 
    124 H124       37.8822  -50.7075  -54.3353 H         1 UNK         0.0794 
    125 H125       36.6637  -51.9084  -54.7229 H         1 UNK         0.0794 
    126 H126       36.8011  -50.4590  -55.7080 H         1 UNK         0.0794 
    127 H127       36.9424  -48.3932  -54.3091 H         1 UNK         0.3016 
@<TRIPOS>BOND
     1    1    2 1    
     2    1   67 1    
     3    1   68 1    
     4    1   69 1    
     5    2    3 2    
     6    2    4 am   BACKBONE|DICT|INTERRES
     7    4    5 1    
     8    4   70 1    
     9    5    6 1    
    10    5   65 1    
    11    5   71 1    
    12    6    7 1    
    13    6   72 1    
    14    6   73 1    
    15    7    8 1    
    16    8    9 1    
    17    8   74 1    
    18    8   75 1    
    19    9   10 ar   
    20    9   14 ar   
    21   10   11 ar   
    22   10   76 1    
    23   11   12 ar   
    24   11   48 1    
    25   12   13 ar   
    26   12   77 1    
    27   13   14 ar   
    28   13   15 1    
    29   14   78 1    
    30   15   16 1    
    31   15   79 1    
    32   15   80 1    
    33   16   17 1    
    34   17   18 1    
    35   17   81 1    
    36   17   82 1    
    37   18   19 1    
    38   18   22 1    
    39   18   83 1    
    40   19   20 am   BACKBONE|DICT|INTERRES
    41   19   21 2    
    42   20   84 1    
    43   20   85 1    
    44   22   23 am   BACKBONE|DICT|INTERRES
    45   22   86 1    
    46   23   24 2    
    47   23   25 1    
    48   25   26 1    
    49   25   27 1    
    50   25   87 1    
    51   26   88 1    
    52   26   89 1    
    53   26   90 1    
    54   27   28 am   BACKBONE|DICT|INTERRES
    55   27   91 1    
    56   28   29 2    
    57   28   30 1    
    58   30   31 1    
    59   30   32 1    
    60   30   92 1    
    61   31   93 1    
    62   31   94 1    
    63   31   95 1    
    64   32   33 am   BACKBONE|DICT|INTERRES
    65   32   96 1    
    66   33   34 2    
    67   33   35 1    
    68   35   36 1    
    69   35   37 1    
    70   35   97 1    
    71   36   98 1    
    72   36   99 1    
    73   36  100 1    
    74   37   38 am   BACKBONE|DICT|INTERRES
    75   37  101 1    
    76   38   39 2    
    77   38   40 1    
    78   40   41 1    
    79   40   42 1    
    80   40  102 1    
    81   41  103 1    
    82   41  104 1    
    83   41  105 1    
    84   42   43 am   BACKBONE|DICT|INTERRES
    85   42  106 1    
    86   43   44 2    
    87   43   45 1    
    88   45   46 1    
    89   45   49 1    
    90   45  107 1    
    91   46   47 1    
    92   46  108 1    
    93   46  109 1    
    94   47   48 1    
    95   48  110 1    
    96   48  111 1    
    97   49   50 am   BACKBONE|DICT|INTERRES
    98   49  112 1    
    99   50   51 2    
   100   50   52 1    
   101   52   53 1    
   102   52   54 1    
   103   52  113 1    
   104   53  114 1    
   105   53  115 1    
   106   53  116 1    
   107   54   55 am   BACKBONE|DICT|INTERRES
   108   54  117 1    
   109   55   56 2    
   110   55   57 1    
   111   57   58 1    
   112   57   59 1    
   113   57  118 1    
   114   58  119 1    
   115   58  120 1    
   116   58  121 1    
   117   59   60 am   BACKBONE|DICT|INTERRES
   118   59  122 1    
   119   60   61 2    
   120   60   62 1    
   121   62   63 1    
   122   62   64 1    
   123   62  123 1    
   124   63  124 1    
   125   63  125 1    
   126   63  126 1    
   127   64   65 am   BACKBONE|DICT|INTERRES
   128   64  127 1    
   129   65   66 2    
@<TRIPOS>SUBSTRUCTURE
     1 UNK         1 GROUP             0       ****    0 ROOT    
