@<TRIPOS>MOLECULE
3R134
127   129    1
SMALL
USER_CHARGES


@<TRIPOS>ATOM
      1 CA         37.3090  -45.5503  -49.6720 C.3       0 UNK        -0.1968 
      2 C          36.0367  -45.7894  -50.4712 C.2       0 UNK         0.4852 
      3 O          34.9743  -45.9832  -49.8772 O.2       0 UNK        -0.5359 
      4 N          36.1439  -45.7876  -51.8085 N.am      1 UNK        -0.4300 
      5 CA         35.0814  -45.9757  -52.8113 C.3       1 UNK         0.0863 
      6 C6         33.9181  -44.9538  -52.7152 C.3       11 UNK        -0.0953 
      7 S7         34.4863  -43.2274  -52.8855 S.3       11 UNK        -0.2369 
      8 C8         33.9126  -42.7993  -54.5680 C.3       11 UNK         0.0226 
      9 C9         32.4002  -42.8865  -54.7836 C.ar      11 UNK        -0.0699 
     10 C10        31.4877  -42.7149  -53.7357 C.ar      11 UNK        -0.0804 
     11 C11        30.1132  -42.8443  -53.9521 C.ar      11 UNK        -0.0871 
     12 C12        29.6441  -43.1134  -55.2414 C.ar      11 UNK        -0.1008 
     13 C13        30.5412  -43.2668  -56.3037 C.ar      11 UNK        -0.0735 
     14 C14        31.9140  -43.1492  -56.0676 C.ar      11 UNK        -0.0945 
     15 C15        30.0347  -43.6196  -57.6939 C.3       11 UNK         0.0169 
     16 S16        29.0027  -42.3105  -58.4168 S.3       11 UNK        -0.2669 
     17 C17        28.4054  -43.1621  -59.9190 C.3       11 UNK        -0.0850 
     18 CA         26.9853  -43.7677  -59.7462 C.3       10 UNK         0.0855 
     19 C          26.3992  -44.2446  -61.1094 C.2       10 UNK         0.5543 
     20 N          25.9667  -45.4909  -61.2638 N.am      10 UNK        -0.7343 
     21 O          26.3264  -43.4585  -62.0508 O.2       10 UNK        -0.5027 
     22 N          26.9509  -44.7897  -58.6860 N.am      10 UNK        -0.4495 
     23 C          25.8710  -45.1027  -57.9611 C.2       10 UNK         0.4903 
     24 O          24.7906  -44.5175  -58.0565 O.2       10 UNK        -0.4860 
     25 CA         26.0316  -46.2717  -56.9680 C.3       9 UNK         0.0227 
     26 CB         24.6785  -46.8241  -56.4736 C.3       9 UNK        -0.1964 
     27 N          26.8722  -47.3698  -57.4654 N.am      9 UNK        -0.4231 
     28 C          26.7031  -48.0870  -58.5863 C.2       9 UNK         0.5014 
     29 O          25.8497  -47.8431  -59.4404 O.2       9 UNK        -0.5270 
     30 CA         27.6382  -49.2929  -58.7820 C.3       8 UNK         0.0284 
     31 CB         28.9969  -48.8691  -59.3609 C.3       8 UNK        -0.1977 
     32 N          27.8210  -50.0772  -57.5530 N.am      8 UNK        -0.4342 
     33 C          26.8651  -50.8688  -57.0416 C.2       8 UNK         0.5039 
     34 O          25.7423  -50.9886  -57.5340 O.2       8 UNK        -0.5547 
     35 CA         27.2054  -51.6786  -55.7854 C.3       7 UNK         0.0281 
     36 CB         28.2091  -52.8036  -56.0976 C.3       7 UNK        -0.1963 
     37 N          27.7225  -50.8223  -54.7151 N.am      7 UNK        -0.4444 
     38 C          27.1111  -50.6495  -53.5350 C.2       7 UNK         0.5104 
     39 O          26.0285  -51.1599  -53.2427 O.2       7 UNK        -0.5100 
     40 CA         27.8195  -49.7906  -52.4742 C.3       6 UNK         0.0396 
     41 CB         28.6864  -50.6704  -51.5596 C.3       6 UNK        -0.1801 
     42 N          28.6291  -48.6943  -53.0098 N.am      6 UNK        -0.4747 
     43 C          28.1144  -47.5702  -53.5301 C.2       6 UNK         0.5012 
     44 O          26.9141  -47.4096  -53.7491 O.2       6 UNK        -0.5003 
     45 CA         29.1001  -46.4282  -53.8409 C.3       5 UNK         0.0782 
     46 C46        29.4086  -45.5726  -52.5833 C.3       11 UNK        -0.0868 
     47 S47        28.1914  -44.2173  -52.4194 S.3       11 UNK        -0.2515 
     48 C48        29.1508  -42.7035  -52.7778 C.3       11 UNK         0.0199 
     49 N          30.3099  -46.9417  -54.4839 N.am      5 UNK        -0.4607 
     50 C          30.4185  -47.0862  -55.8107 C.2       4 UNK         0.5031 
     51 O          29.5284  -46.7829  -56.6013 O.2       4 UNK        -0.5119 
     52 CA         31.6962  -47.7491  -56.3495 C.3       4 UNK         0.0263 
     53 CB         32.8456  -46.7352  -56.4443 C.3       4 UNK        -0.1967 
     54 N          32.0946  -48.9111  -55.5526 N.am      4 UNK        -0.4237 
     55 C          31.3168  -49.9939  -55.3939 C.2       3 UNK         0.4908 
     56 O          30.2335  -50.1380  -55.9635 O.2       3 UNK        -0.5102 
     57 CA         31.7771  -51.0829  -54.4101 C.3       3 UNK         0.0241 
     58 CB         32.4431  -52.2388  -55.1721 C.3       3 UNK        -0.1971 
     59 N          32.6772  -50.6186  -53.3501 N.am      3 UNK        -0.4139 
     60 C          32.4364  -49.6329  -52.4729 C.2       2 UNK         0.5016 
     61 O          31.4003  -48.9644  -52.4560 O.2       2 UNK        -0.5319 
     62 CA         33.5629  -49.2896  -51.4793 C.3       2 UNK         0.0286 
     63 CB         34.7184  -50.3159  -51.4489 C.3       2 UNK        -0.1963 
     64 N          34.1005  -47.9444  -51.7095 N.am      2 UNK        -0.4790 
     65 C          34.5478  -47.4221  -52.8607 C.2       1 UNK         0.5024 
     66 O          34.5589  -48.0309  -53.9325 O.2       1 UNK        -0.4888 
     67 H67        38.1740  -45.3940  -50.3162 H         1 UNK         0.0892 
     68 H68        37.1938  -44.6697  -49.0406 H         1 UNK         0.0892 
     69 H69        37.5145  -46.4061  -49.0295 H         1 UNK         0.0892 
     70 H70        37.0613  -45.6440  -52.2073 H         1 UNK         0.3107 
     71 H71        35.5687  -45.8099  -53.7738 H         1 UNK         0.0773 
     72 H72        33.3963  -45.0426  -51.7615 H         1 UNK         0.0680 
     73 H73        33.1647  -45.1597  -53.4756 H         1 UNK         0.0680 
     74 H74        34.4264  -43.4535  -55.2743 H         1 UNK         0.0650 
     75 H75        34.2355  -41.7827  -54.7947 H         1 UNK         0.0650 
     76 H76        31.8455  -42.5001  -52.7388 H         1 UNK         0.1397 
     77 H77        28.5821  -43.2199  -55.4164 H         1 UNK         0.1363 
     78 H78        32.6102  -43.2801  -56.8847 H         1 UNK         0.1355 
     79 H79        30.8647  -43.8349  -58.3687 H         1 UNK         0.0707 
     80 H80        29.4473  -44.5312  -57.6279 H         1 UNK         0.0707 
     81 H81        28.4064  -42.4213  -60.7210 H         1 UNK         0.1034 
     82 H82        29.1183  -43.9296  -60.2257 H         1 UNK         0.1034 
     83 H83        26.3337  -42.9498  -59.4323 H         1 UNK         0.0482 
     84 H84        25.5884  -45.7686  -62.1551 H         1 UNK         0.3460 
     85 H85        25.9839  -46.1579  -60.4995 H         1 UNK         0.3460 
     86 H86        27.7891  -45.3363  -58.5568 H         1 UNK         0.2989 
     87 H87        26.5543  -45.8592  -56.1042 H         1 UNK         0.0559 
     88 H88        24.0810  -47.2214  -57.2949 H         1 UNK         0.0848 
     89 H89        24.0901  -46.0462  -55.9858 H         1 UNK         0.0848 
     90 H90        24.8214  -47.6228  -55.7454 H         1 UNK         0.0848 
     91 H91        27.6993  -47.5635  -56.9100 H         1 UNK         0.3144 
     92 H92        27.1670  -49.9447  -59.5213 H         1 UNK         0.0727 
     93 H93        29.5415  -48.2092  -58.6904 H         1 UNK         0.0790 
     94 H94        28.8667  -48.3356  -60.3035 H         1 UNK         0.0790 
     95 H95        29.6283  -49.7344  -59.5632 H         1 UNK         0.0790 
     96 H96        28.7296  -50.0406  -57.0953 H         1 UNK         0.3215 
     97 H97        26.2792  -52.1628  -55.4681 H         1 UNK         0.0863 
     98 H98        28.4163  -53.4039  -55.2117 H         1 UNK         0.0808 
     99 H99        29.1589  -52.4236  -56.4717 H         1 UNK         0.0808 
    100 H100       27.8103  -53.4766  -56.8577 H         1 UNK         0.0808 
    101 H101       28.6042  -50.3541  -54.8969 H         1 UNK         0.3118 
    102 H102       27.0398  -49.3463  -51.8513 H         1 UNK         0.0546 
    103 H103       28.0908  -51.4594  -51.0984 H         1 UNK         0.0828 
    104 H104       29.1303  -50.0872  -50.7527 H         1 UNK         0.0828 
    105 H105       29.4953  -51.1527  -52.1063 H         1 UNK         0.0828 
    106 H106       29.6343  -48.7513  -52.8502 H         1 UNK         0.3005 
    107 H107       28.5962  -45.7800  -54.5618 H         1 UNK         0.1257 
    108 H108       30.4119  -45.1498  -52.6392 H         1 UNK         0.0775 
    109 H109       29.4057  -46.1712  -51.6700 H         1 UNK         0.0775 
    110 H110       28.4564  -41.8878  -52.9830 H         1 UNK         0.0840 
    111 H111       29.6888  -42.4197  -51.8719 H         1 UNK         0.0840 
    112 H112       31.0326  -47.3102  -53.8789 H         1 UNK         0.2987 
    113 H113       31.4862  -48.1067  -57.3589 H         1 UNK         0.0785 
    114 H114       32.5828  -45.9166  -57.1151 H         1 UNK         0.0798 
    115 H115       33.7528  -47.1963  -56.8349 H         1 UNK         0.0798 
    116 H116       33.0823  -46.2972  -55.4764 H         1 UNK         0.0798 
    117 H117       32.9650  -48.8418  -55.0355 H         1 UNK         0.3079 
    118 H118       30.8802  -51.4728  -53.9278 H         1 UNK         0.0794 
    119 H119       33.3702  -51.9241  -55.6530 H         1 UNK         0.0786 
    120 H120       31.7851  -52.6234  -55.9530 H         1 UNK         0.0786 
    121 H121       32.6736  -53.0724  -54.5083 H         1 UNK         0.0786 
    122 H122       33.5760  -51.0756  -53.2980 H         1 UNK         0.3032 
    123 H123       33.0985  -49.2792  -50.4918 H         1 UNK         0.1094 
    124 H124       35.4342  -50.0678  -50.6649 H         1 UNK         0.0794 
    125 H125       34.3526  -51.3211  -51.2338 H         1 UNK         0.0794 
    126 H126       35.2684  -50.3502  -52.3901 H         1 UNK         0.0794 
    127 H127       34.1579  -47.3384  -50.8928 H         1 UNK         0.3016 
@<TRIPOS>BOND
     1    1    2 1    
     2    1   67 1    
     3    1   68 1    
     4    1   69 1    
     5    2    3 2    
     6    2    4 am   BACKBONE|DICT|INTERRES
     7    4    5 1    
     8    4   70 1    
     9    5    6 1    
    10    5   65 1    
    11    5   71 1    
    12    6    7 1    
    13    6   72 1    
    14    6   73 1    
    15    7    8 1    
    16    8    9 1    
    17    8   74 1    
    18    8   75 1    
    19    9   10 ar   
    20    9   14 ar   
    21   10   11 ar   
    22   10   76 1    
    23   11   12 ar   
    24   11   48 1    
    25   12   13 ar   
    26   12   77 1    
    27   13   14 ar   
    28   13   15 1    
    29   14   78 1    
    30   15   16 1    
    31   15   79 1    
    32   15   80 1    
    33   16   17 1    
    34   17   18 1    
    35   17   81 1    
    36   17   82 1    
    37   18   19 1    
    38   18   22 1    
    39   18   83 1    
    40   19   20 am   BACKBONE|DICT|INTERRES
    41   19   21 2    
    42   20   84 1    
    43   20   85 1    
    44   22   23 am   BACKBONE|DICT|INTERRES
    45   22   86 1    
    46   23   24 2    
    47   23   25 1    
    48   25   26 1    
    49   25   27 1    
    50   25   87 1    
    51   26   88 1    
    52   26   89 1    
    53   26   90 1    
    54   27   28 am   BACKBONE|DICT|INTERRES
    55   27   91 1    
    56   28   29 2    
    57   28   30 1    
    58   30   31 1    
    59   30   32 1    
    60   30   92 1    
    61   31   93 1    
    62   31   94 1    
    63   31   95 1    
    64   32   33 am   BACKBONE|DICT|INTERRES
    65   32   96 1    
    66   33   34 2    
    67   33   35 1    
    68   35   36 1    
    69   35   37 1    
    70   35   97 1    
    71   36   98 1    
    72   36   99 1    
    73   36  100 1    
    74   37   38 am   BACKBONE|DICT|INTERRES
    75   37  101 1    
    76   38   39 2    
    77   38   40 1    
    78   40   41 1    
    79   40   42 1    
    80   40  102 1    
    81   41  103 1    
    82   41  104 1    
    83   41  105 1    
    84   42   43 am   BACKBONE|DICT|INTERRES
    85   42  106 1    
    86   43   44 2    
    87   43   45 1    
    88   45   46 1    
    89   45   49 1    
    90   45  107 1    
    91   46   47 1    
    92   46  108 1    
    93   46  109 1    
    94   47   48 1    
    95   48  110 1    
    96   48  111 1    
    97   49   50 am   BACKBONE|DICT|INTERRES
    98   49  112 1    
    99   50   51 2    
   100   50   52 1    
   101   52   53 1    
   102   52   54 1    
   103   52  113 1    
   104   53  114 1    
   105   53  115 1    
   106   53  116 1    
   107   54   55 am   BACKBONE|DICT|INTERRES
   108   54  117 1    
   109   55   56 2    
   110   55   57 1    
   111   57   58 1    
   112   57   59 1    
   113   57  118 1    
   114   58  119 1    
   115   58  120 1    
   116   58  121 1    
   117   59   60 am   BACKBONE|DICT|INTERRES
   118   59  122 1    
   119   60   61 2    
   120   60   62 1    
   121   62   63 1    
   122   62   64 1    
   123   62  123 1    
   124   63  124 1    
   125   63  125 1    
   126   63  126 1    
   127   64   65 am   BACKBONE|DICT|INTERRES
   128   64  127 1    
   129   65   66 2    
@<TRIPOS>SUBSTRUCTURE
     1 UNK         1 GROUP             0       ****    0 ROOT    
