@<TRIPOS>MOLECULE
3R134
127   129    1
SMALL
USER_CHARGES


@<TRIPOS>ATOM
      1 CA         37.2421  -46.3903  -55.3649 C.3       0 UNK        -0.1968 
      2 C          36.0062  -46.3497  -54.4807 C.2       0 UNK         0.4852 
      3 O          35.2357  -47.3105  -54.4660 O.2       0 UNK        -0.5359 
      4 N          35.8200  -45.2577  -53.7258 N.am      1 UNK        -0.4300 
      5 CA         34.6557  -44.9649  -52.8714 C.3       1 UNK         0.0863 
      6 C6         34.7697  -43.5658  -52.2152 C.3       11 UNK        -0.0953 
      7 S7         34.9593  -42.2271  -53.4408 S.3       11 UNK        -0.2369 
      8 C8         33.3161  -41.4426  -53.3999 C.3       11 UNK         0.0226 
      9 C9         32.2270  -42.3594  -53.9388 C.ar      11 UNK        -0.0699 
     10 C10        31.2835  -42.9239  -53.0745 C.ar      11 UNK        -0.0804 
     11 C11        30.2753  -43.7579  -53.5689 C.ar      11 UNK        -0.0871 
     12 C12        30.2176  -44.0275  -54.9391 C.ar      11 UNK        -0.1008 
     13 C13        31.1552  -43.4679  -55.8119 C.ar      11 UNK        -0.0735 
     14 C14        32.1555  -42.6327  -55.3077 C.ar      11 UNK        -0.0945 
     15 C15        31.0965  -43.7798  -57.2970 C.3       11 UNK         0.0169 
     16 S16        30.0616  -42.5776  -58.1862 S.3       11 UNK        -0.2669 
     17 C17        28.9626  -43.7046  -59.1080 C.3       11 UNK        -0.0850 
     18 CA         27.7050  -44.1114  -58.2806 C.3       10 UNK         0.0855 
     19 C          26.4832  -43.1664  -58.5095 C.2       10 UNK         0.5543 
     20 N          25.2512  -43.6609  -58.5469 N.am      10 UNK        -0.7343 
     21 O          26.6463  -41.9547  -58.6282 O.2       10 UNK        -0.5027 
     22 N          27.4050  -45.5487  -58.3783 N.am      10 UNK        -0.4495 
     23 C          27.0939  -46.2162  -59.4971 C.2       10 UNK         0.4903 
     24 O          27.1308  -45.7273  -60.6265 O.2       10 UNK        -0.4860 
     25 CA         26.6293  -47.6747  -59.3261 C.3       9 UNK         0.0227 
     26 CB         27.8189  -48.6366  -59.4713 C.3       9 UNK        -0.1964 
     27 N          25.9269  -47.9494  -58.0642 N.am      9 UNK        -0.4231 
     28 C          24.8057  -47.3323  -57.6506 C.2       9 UNK         0.5014 
     29 O          24.2701  -46.4128  -58.2727 O.2       9 UNK        -0.5270 
     30 CA         24.1907  -47.8004  -56.3148 C.3       8 UNK         0.0284 
     31 CB         22.7018  -47.4186  -56.1683 C.3       8 UNK        -0.1977 
     32 N          24.3968  -49.2289  -56.0558 N.am      8 UNK        -0.4342 
     33 C          23.9810  -50.2633  -56.8060 C.2       8 UNK         0.5039 
     34 O          23.2408  -50.1445  -57.7838 O.2       8 UNK        -0.5547 
     35 CA         24.4878  -51.6693  -56.4121 C.3       7 UNK         0.0281 
     36 CB         24.7397  -52.5601  -57.6479 C.3       7 UNK        -0.1963 
     37 N          25.6706  -51.6652  -55.5367 N.am      7 UNK        -0.4444 
     38 C          26.8675  -51.1181  -55.7936 C.2       7 UNK         0.5104 
     39 O          27.1573  -50.5360  -56.8412 O.2       7 UNK        -0.5100 
     40 CA         27.8965  -51.1971  -54.6547 C.3       6 UNK         0.0396 
     41 CB         28.9455  -52.2765  -54.9607 C.3       6 UNK        -0.1801 
     42 N          28.5664  -49.9168  -54.4019 N.am      6 UNK        -0.4747 
     43 C          27.9550  -48.7478  -54.1373 C.2       6 UNK         0.5012 
     44 O          26.7299  -48.6188  -54.0827 O.2       6 UNK        -0.5003 
     45 CA         28.8445  -47.5158  -53.8540 C.3       5 UNK         0.0782 
     46 C46        28.7825  -47.1633  -52.3449 C.3       11 UNK        -0.0868 
     47 S47        29.9270  -45.8471  -51.8124 S.3       11 UNK        -0.2515 
     48 C48        29.2530  -44.3629  -52.6181 C.3       11 UNK         0.0199 
     49 N          30.2164  -47.6927  -54.3397 N.am      5 UNK        -0.4607 
     50 C          30.5752  -47.6554  -55.6288 C.2       4 UNK         0.5031 
     51 O          29.7974  -47.3520  -56.5338 O.2       4 UNK        -0.5119 
     52 CA         32.0287  -48.0292  -55.9835 C.3       4 UNK         0.0263 
     53 CB         32.7821  -46.8214  -56.5613 C.3       4 UNK        -0.1967 
     54 N          32.8247  -48.6068  -54.8917 N.am      4 UNK        -0.4237 
     55 C          32.5875  -49.7864  -54.2996 C.2       3 UNK         0.4908 
     56 O          31.5852  -50.4635  -54.5260 O.2       3 UNK        -0.5102 
     57 CA         33.6208  -50.3110  -53.2918 C.3       3 UNK         0.0241 
     58 CB         34.6835  -51.1557  -54.0142 C.3       3 UNK        -0.1971 
     59 N          34.2873  -49.2416  -52.5420 N.am      3 UNK        -0.4139 
     60 C          34.3665  -49.1838  -51.2036 C.2       2 UNK         0.5016 
     61 O          33.8424  -50.0063  -50.4508 O.2       2 UNK        -0.5319 
     62 CA         35.1850  -48.0349  -50.5791 C.3       2 UNK         0.0286 
     63 CB         36.5758  -48.5370  -50.1577 C.3       2 UNK        -0.1963 
     64 N          35.3466  -46.8790  -51.4631 N.am      2 UNK        -0.4790 
     65 C          34.3617  -46.0311  -51.7906 C.2       1 UNK         0.5024 
     66 O          33.2443  -46.0776  -51.2804 O.2       1 UNK        -0.4888 
     67 H67        36.9492  -46.4977  -56.4089 H         1 UNK         0.0892 
     68 H68        37.8416  -45.4851  -55.2713 H         1 UNK         0.0892 
     69 H69        37.8664  -47.2421  -55.0968 H         1 UNK         0.0892 
     70 H70        36.4936  -44.5069  -53.7839 H         1 UNK         0.3107 
     71 H71        33.7831  -44.9575  -53.5285 H         1 UNK         0.0773 
     72 H72        35.6297  -43.5304  -51.5437 H         1 UNK         0.0680 
     73 H73        33.8963  -43.3561  -51.5947 H         1 UNK         0.0680 
     74 H74        33.3473  -40.5332  -54.0016 H         1 UNK         0.0650 
     75 H75        33.0922  -41.1253  -52.3802 H         1 UNK         0.0650 
     76 H76        31.3338  -42.7191  -52.0137 H         1 UNK         0.1397 
     77 H77        29.4463  -44.6760  -55.3300 H         1 UNK         0.1363 
     78 H78        32.8829  -42.1976  -55.9796 H         1 UNK         0.1355 
     79 H79        30.7018  -44.7872  -57.4316 H         1 UNK         0.0707 
     80 H80        32.0990  -43.7818  -57.7277 H         1 UNK         0.0707 
     81 H81        28.6793  -43.2332  -60.0511 H         1 UNK         0.1034 
     82 H82        29.5419  -44.5815  -59.4011 H         1 UNK         0.1034 
     83 H83        27.9408  -43.9825  -57.2239 H         1 UNK         0.0482 
     84 H84        25.0742  -44.6571  -58.4601 H         1 UNK         0.3460 
     85 H85        24.4776  -43.0309  -58.6857 H         1 UNK         0.3460 
     86 H86        27.3654  -46.0514  -57.5039 H         1 UNK         0.2989 
     87 H87        25.9259  -47.8840  -60.1343 H         1 UNK         0.0559 
     88 H88        28.5295  -48.5252  -58.6513 H         1 UNK         0.0848 
     89 H89        28.3605  -48.4556  -60.4007 H         1 UNK         0.0848 
     90 H90        27.4890  -49.6756  -59.4870 H         1 UNK         0.0848 
     91 H91        26.2941  -48.7152  -57.5075 H         1 UNK         0.3144 
     92 H92        24.7402  -47.2716  -55.5348 H         1 UNK         0.0727 
     93 H93        22.2986  -47.7525  -55.2123 H         1 UNK         0.0790 
     94 H94        22.0919  -47.8531  -56.9608 H         1 UNK         0.0790 
     95 H95        22.5690  -46.3369  -56.2138 H         1 UNK         0.0790 
     96 H96        25.0231  -49.4294  -55.2840 H         1 UNK         0.3215 
     97 H97        23.6819  -52.1249  -55.8346 H         1 UNK         0.0863 
     98 H98        25.4869  -52.1260  -58.3132 H         1 UNK         0.0808 
     99 H99        23.8267  -52.6937  -58.2295 H         1 UNK         0.0808 
    100 H100       25.0839  -53.5531  -57.3589 H         1 UNK         0.0808 
    101 H101       25.5365  -52.0983  -54.6324 H         1 UNK         0.3118 
    102 H102       27.3809  -51.4744  -53.7331 H         1 UNK         0.0546 
    103 H103       29.6334  -52.4105  -54.1257 H         1 UNK         0.0828 
    104 H104       29.5354  -52.0230  -55.8427 H         1 UNK         0.0828 
    105 H105       28.4741  -53.2420  -55.1490 H         1 UNK         0.0828 
    106 H106       29.5802  -49.9309  -54.4502 H         1 UNK         0.3005 
    107 H107       28.4005  -46.6888  -54.4108 H         1 UNK         0.1257 
    108 H108       29.0176  -48.0432  -51.7424 H         1 UNK         0.0775 
    109 H109       27.7689  -46.8707  -52.0632 H         1 UNK         0.0775 
    110 H110       28.3265  -44.5941  -53.1449 H         1 UNK         0.0840 
    111 H111       28.9877  -43.6348  -51.8501 H         1 UNK         0.0840 
    112 H112       30.9162  -47.9121  -53.6465 H         1 UNK         0.2987 
    113 H113       31.9670  -48.7879  -56.7664 H         1 UNK         0.0785 
    114 H114       33.8013  -47.0856  -56.8433 H         1 UNK         0.0798 
    115 H115       32.8331  -45.9986  -55.8469 H         1 UNK         0.0798 
    116 H116       32.2927  -46.4553  -57.4632 H         1 UNK         0.0798 
    117 H117       33.6938  -48.1176  -54.6794 H         1 UNK         0.3079 
    118 H118       33.0771  -50.9681  -52.6098 H         1 UNK         0.0794 
    119 H119       34.2216  -51.9610  -54.5874 H         1 UNK         0.0786 
    120 H120       35.3706  -51.6165  -53.3044 H         1 UNK         0.0786 
    121 H121       35.2725  -50.5543  -54.7082 H         1 UNK         0.0786 
    122 H122       34.7378  -48.5126  -53.0896 H         1 UNK         0.3032 
    123 H123       34.6516  -47.7093  -49.6828 H         1 UNK         0.1094 
    124 H124       37.1621  -48.8703  -51.0150 H         1 UNK         0.0794 
    125 H125       37.1409  -47.7585  -49.6446 H         1 UNK         0.0794 
    126 H126       36.4945  -49.3809  -49.4710 H         1 UNK         0.0794 
    127 H127       36.2386  -46.7737  -51.9248 H         1 UNK         0.3016 
@<TRIPOS>BOND
     1    1    2 1    
     2    1   67 1    
     3    1   68 1    
     4    1   69 1    
     5    2    3 2    
     6    2    4 am   BACKBONE|DICT|INTERRES
     7    4    5 1    
     8    4   70 1    
     9    5    6 1    
    10    5   65 1    
    11    5   71 1    
    12    6    7 1    
    13    6   72 1    
    14    6   73 1    
    15    7    8 1    
    16    8    9 1    
    17    8   74 1    
    18    8   75 1    
    19    9   10 ar   
    20    9   14 ar   
    21   10   11 ar   
    22   10   76 1    
    23   11   12 ar   
    24   11   48 1    
    25   12   13 ar   
    26   12   77 1    
    27   13   14 ar   
    28   13   15 1    
    29   14   78 1    
    30   15   16 1    
    31   15   79 1    
    32   15   80 1    
    33   16   17 1    
    34   17   18 1    
    35   17   81 1    
    36   17   82 1    
    37   18   19 1    
    38   18   22 1    
    39   18   83 1    
    40   19   20 am   BACKBONE|DICT|INTERRES
    41   19   21 2    
    42   20   84 1    
    43   20   85 1    
    44   22   23 am   BACKBONE|DICT|INTERRES
    45   22   86 1    
    46   23   24 2    
    47   23   25 1    
    48   25   26 1    
    49   25   27 1    
    50   25   87 1    
    51   26   88 1    
    52   26   89 1    
    53   26   90 1    
    54   27   28 am   BACKBONE|DICT|INTERRES
    55   27   91 1    
    56   28   29 2    
    57   28   30 1    
    58   30   31 1    
    59   30   32 1    
    60   30   92 1    
    61   31   93 1    
    62   31   94 1    
    63   31   95 1    
    64   32   33 am   BACKBONE|DICT|INTERRES
    65   32   96 1    
    66   33   34 2    
    67   33   35 1    
    68   35   36 1    
    69   35   37 1    
    70   35   97 1    
    71   36   98 1    
    72   36   99 1    
    73   36  100 1    
    74   37   38 am   BACKBONE|DICT|INTERRES
    75   37  101 1    
    76   38   39 2    
    77   38   40 1    
    78   40   41 1    
    79   40   42 1    
    80   40  102 1    
    81   41  103 1    
    82   41  104 1    
    83   41  105 1    
    84   42   43 am   BACKBONE|DICT|INTERRES
    85   42  106 1    
    86   43   44 2    
    87   43   45 1    
    88   45   46 1    
    89   45   49 1    
    90   45  107 1    
    91   46   47 1    
    92   46  108 1    
    93   46  109 1    
    94   47   48 1    
    95   48  110 1    
    96   48  111 1    
    97   49   50 am   BACKBONE|DICT|INTERRES
    98   49  112 1    
    99   50   51 2    
   100   50   52 1    
   101   52   53 1    
   102   52   54 1    
   103   52  113 1    
   104   53  114 1    
   105   53  115 1    
   106   53  116 1    
   107   54   55 am   BACKBONE|DICT|INTERRES
   108   54  117 1    
   109   55   56 2    
   110   55   57 1    
   111   57   58 1    
   112   57   59 1    
   113   57  118 1    
   114   58  119 1    
   115   58  120 1    
   116   58  121 1    
   117   59   60 am   BACKBONE|DICT|INTERRES
   118   59  122 1    
   119   60   61 2    
   120   60   62 1    
   121   62   63 1    
   122   62   64 1    
   123   62  123 1    
   124   63  124 1    
   125   63  125 1    
   126   63  126 1    
   127   64   65 am   BACKBONE|DICT|INTERRES
   128   64  127 1    
   129   65   66 2    
@<TRIPOS>SUBSTRUCTURE
     1 UNK         1 GROUP             0       ****    0 ROOT    
