@<TRIPOS>MOLECULE
3R134
127   129    1
SMALL
USER_CHARGES


@<TRIPOS>ATOM
      1 CA         32.6642  -49.2622  -57.9965 C.3       0 UNK        -0.1968 
      2 C          32.9532  -48.7896  -56.5809 C.2       0 UNK         0.4852 
      3 O          32.7079  -49.5344  -55.6327 O.2       0 UNK        -0.5359 
      4 N          33.4851  -47.5665  -56.4337 N.am      1 UNK        -0.4300 
      5 CA         33.7329  -46.8641  -55.1627 C.3       1 UNK         0.0863 
      6 C6         34.3944  -45.4770  -55.3784 C.3       11 UNK        -0.0953 
      7 S7         33.6104  -44.4646  -56.6792 S.3       11 UNK        -0.2369 
      8 C8         33.2315  -42.9163  -55.7987 C.3       11 UNK         0.0226 
      9 C9         31.8775  -42.9782  -55.1102 C.ar      11 UNK        -0.0699 
     10 C10        31.7788  -43.0202  -53.7159 C.ar      11 UNK        -0.0804 
     11 C11        30.5244  -43.0525  -53.0966 C.ar      11 UNK        -0.0871 
     12 C12        29.3681  -43.0707  -53.8844 C.ar      11 UNK        -0.1008 
     13 C13        29.4570  -43.0384  -55.2786 C.ar      11 UNK        -0.0735 
     14 C14        30.7139  -42.9716  -55.8830 C.ar      11 UNK        -0.0945 
     15 C15        28.2027  -43.1114  -56.1360 C.3       11 UNK         0.0169 
     16 S16        27.1667  -41.6318  -55.9437 S.3       11 UNK        -0.2669 
     17 C17        26.0239  -41.7650  -57.3612 C.3       11 UNK        -0.0850 
     18 CA         25.2163  -43.1056  -57.4238 C.3       10 UNK         0.0855 
     19 C          23.7287  -42.9099  -57.8620 C.2       10 UNK         0.5543 
     20 N          23.1256  -43.8360  -58.5985 N.am      10 UNK        -0.7343 
     21 O          23.0912  -41.9248  -57.4964 O.2       10 UNK        -0.5027 
     22 N          25.9226  -44.1820  -58.1521 N.am      10 UNK        -0.4495 
     23 C          26.2698  -44.1778  -59.4466 C.2       10 UNK         0.4903 
     24 O          26.1225  -43.2050  -60.1881 O.2       10 UNK        -0.4860 
     25 CA         26.8538  -45.4892  -60.0173 C.3       9 UNK         0.0227 
     26 CB         27.2694  -45.3558  -61.4957 C.3       9 UNK        -0.1964 
     27 N          27.9911  -46.0193  -59.2573 N.am      9 UNK        -0.4231 
     28 C          27.9145  -46.6691  -58.0893 C.2       9 UNK         0.5014 
     29 O          26.8690  -46.7875  -57.4446 O.2       9 UNK        -0.5270 
     30 CA         29.2343  -47.2542  -57.5508 C.3       8 UNK         0.0284 
     31 CB         29.9994  -46.1959  -56.7479 C.3       8 UNK        -0.1977 
     32 N          29.0151  -48.4172  -56.6929 N.am      8 UNK        -0.4342 
     33 C          28.4951  -49.5867  -57.0889 C.2       8 UNK         0.5039 
     34 O          28.2678  -49.8780  -58.2644 O.2       8 UNK        -0.5547 
     35 CA         28.1564  -50.5963  -55.9816 C.3       7 UNK         0.0281 
     36 CB         29.3722  -51.4821  -55.6600 C.3       7 UNK        -0.1963 
     37 N          27.6935  -49.9155  -54.7679 N.am      7 UNK        -0.4444 
     38 C          26.4313  -49.5041  -54.5697 C.2       7 UNK         0.5104 
     39 O          25.5074  -49.7431  -55.3479 O.2       7 UNK        -0.5100 
     40 CA         26.1279  -48.7136  -53.2811 C.3       6 UNK         0.0396 
     41 CB         25.5025  -49.6394  -52.2251 C.3       6 UNK        -0.1801 
     42 N          27.3087  -48.0669  -52.7053 N.am      6 UNK        -0.4747 
     43 C          27.8545  -46.9230  -53.1474 C.2       6 UNK         0.5012 
     44 O          27.3597  -46.2285  -54.0331 O.2       6 UNK        -0.5003 
     45 CA         29.1990  -46.4993  -52.5128 C.3       5 UNK         0.0782 
     46 C46        28.9708  -45.4571  -51.3936 C.3       11 UNK        -0.0868 
     47 S47        30.5417  -44.7028  -50.8551 S.3       11 UNK        -0.2515 
     48 C48        30.4189  -43.0360  -51.5774 C.3       11 UNK         0.0199 
     49 N          29.9764  -47.6477  -52.0244 N.am      5 UNK        -0.4607 
     50 C          30.4427  -48.6321  -52.7987 C.2       4 UNK         0.5031 
     51 O          30.3068  -48.6525  -54.0223 O.2       4 UNK        -0.5119 
     52 CA         31.0193  -49.8477  -52.0703 C.3       4 UNK         0.0263 
     53 CB         29.8641  -50.7953  -51.6750 C.3       4 UNK        -0.1967 
     54 N          31.9888  -50.5291  -52.9270 N.am      4 UNK        -0.4237 
     55 C          32.7695  -51.5501  -52.5442 C.2       3 UNK         0.4908 
     56 O          32.7493  -52.0521  -51.4195 O.2       3 UNK        -0.5102 
     57 CA         33.7758  -52.0803  -53.5724 C.3       3 UNK         0.0241 
     58 CB         33.0751  -52.7641  -54.7599 C.3       3 UNK        -0.1971 
     59 N          34.6284  -50.9890  -54.0376 N.am      3 UNK        -0.4139 
     60 C          35.7386  -50.5816  -53.4050 C.2       2 UNK         0.5016 
     61 O          36.2222  -51.1597  -52.4305 O.2       2 UNK        -0.5319 
     62 CA         36.4421  -49.3205  -53.9384 C.3       2 UNK         0.0286 
     63 CB         37.6399  -49.7065  -54.8215 C.3       2 UNK        -0.1963 
     64 N          35.5586  -48.4324  -54.6957 N.am      2 UNK        -0.4790 
     65 C          34.5849  -47.6773  -54.1650 C.2       1 UNK         0.5024 
     66 O          34.3457  -47.6132  -52.9590 O.2       1 UNK        -0.4888 
     67 H67        31.6201  -49.5618  -58.0816 H         1 UNK         0.0892 
     68 H68        32.8551  -48.4835  -58.7344 H         1 UNK         0.0892 
     69 H69        33.2859  -50.1236  -58.2377 H         1 UNK         0.0892 
     70 H70        33.6675  -47.0091  -57.2565 H         1 UNK         0.3107 
     71 H71        32.7573  -46.7089  -54.6967 H         1 UNK         0.0773 
     72 H72        35.4429  -45.5912  -55.6614 H         1 UNK         0.0680 
     73 H73        34.3961  -44.9206  -54.4393 H         1 UNK         0.0680 
     74 H74        33.2200  -42.1009  -56.5233 H         1 UNK         0.0650 
     75 H75        34.0280  -42.6796  -55.0917 H         1 UNK         0.0650 
     76 H76        32.6757  -43.0136  -53.1116 H         1 UNK         0.1397 
     77 H77        28.3928  -43.1035  -53.4192 H         1 UNK         0.1363 
     78 H78        30.7932  -42.9388  -56.9610 H         1 UNK         0.1355 
     79 H79        27.6288  -43.9956  -55.8536 H         1 UNK         0.0707 
     80 H80        28.4658  -43.2314  -57.1885 H         1 UNK         0.0707 
     81 H81        25.3613  -40.9018  -57.2740 H         1 UNK         0.1034 
     82 H82        26.5847  -41.5851  -58.2789 H         1 UNK         0.1034 
     83 H83        25.1215  -43.4767  -56.4026 H         1 UNK         0.0482 
     84 H84        22.1613  -43.7066  -58.8624 H         1 UNK         0.3460 
     85 H85        23.6229  -44.6629  -58.8870 H         1 UNK         0.3460 
     86 H86        26.0781  -45.0458  -57.6374 H         1 UNK         0.2989 
     87 H87        26.0498  -46.2275  -59.9755 H         1 UNK         0.0559 
     88 H88        28.0701  -44.6264  -61.6264 H         1 UNK         0.0848 
     89 H89        26.4297  -45.0313  -62.1121 H         1 UNK         0.0848 
     90 H90        27.6116  -46.3083  -61.9014 H         1 UNK         0.0848 
     91 H91        28.8974  -45.9217  -59.6929 H         1 UNK         0.3144 
     92 H92        29.8493  -47.5736  -58.3944 H         1 UNK         0.0727 
     93 H93        30.2673  -45.3474  -57.3769 H         1 UNK         0.0790 
     94 H94        30.9221  -46.5941  -56.3332 H         1 UNK         0.0790 
     95 H95        29.4043  -45.8216  -55.9153 H         1 UNK         0.0790 
     96 H96        29.2351  -48.3044  -55.7092 H         1 UNK         0.3215 
     97 H97        27.3592  -51.2444  -56.3527 H         1 UNK         0.0863 
     98 H98        30.2281  -50.8959  -55.3274 H         1 UNK         0.0808 
     99 H99        29.6896  -52.0378  -56.5432 H         1 UNK         0.0808 
    100 H100       29.1410  -52.2120  -54.8846 H         1 UNK         0.0808 
    101 H101       28.4096  -49.6240  -54.1164 H         1 UNK         0.3118 
    102 H102       25.3959  -47.9429  -53.5326 H         1 UNK         0.0546 
    103 H103       24.5981  -50.1136  -52.6091 H         1 UNK         0.0828 
    104 H104       25.2193  -49.0865  -51.3292 H         1 UNK         0.0828 
    105 H105       26.1857  -50.4361  -51.9279 H         1 UNK         0.0828 
    106 H106       27.7676  -48.5507  -51.9478 H         1 UNK         0.3005 
    107 H107       29.7776  -46.0276  -53.3114 H         1 UNK         0.1257 
    108 H108       28.4975  -45.9225  -50.5271 H         1 UNK         0.0775 
    109 H109       28.2851  -44.6723  -51.7158 H         1 UNK         0.0775 
    110 H110       29.4850  -42.5676  -51.2626 H         1 UNK         0.0840 
    111 H111       31.2166  -42.4173  -51.1635 H         1 UNK         0.0840 
    112 H112       30.1255  -47.6892  -51.0263 H         1 UNK         0.2987 
    113 H113       31.5381  -49.5030  -51.1735 H         1 UNK         0.0785 
    114 H114       29.1035  -50.2749  -51.0922 H         1 UNK         0.0798 
    115 H115       30.2100  -51.6239  -51.0581 H         1 UNK         0.0798 
    116 H116       29.3732  -51.2195  -52.5511 H         1 UNK         0.0798 
    117 H117       32.0812  -50.1438  -53.8672 H         1 UNK         0.3079 
    118 H118       34.3932  -52.8355  -53.0806 H         1 UNK         0.0794 
    119 H119       32.4502  -53.5897  -54.4171 H         1 UNK         0.0786 
    120 H120       33.8013  -53.1769  -55.4601 H         1 UNK         0.0786 
    121 H121       32.4320  -52.0816  -55.3140 H         1 UNK         0.0786 
    122 H122       34.2456  -50.4108  -54.7794 H         1 UNK         0.3032 
    123 H123       36.8169  -48.7698  -53.0723 H         1 UNK         0.1094 
    124 H124       38.3361  -50.3459  -54.2767 H         1 UNK         0.0794 
    125 H125       37.3263  -50.2521  -55.7125 H         1 UNK         0.0794 
    126 H126       38.1967  -48.8262  -55.1434 H         1 UNK         0.0794 
    127 H127       35.6745  -48.4198  -55.6990 H         1 UNK         0.3016 
@<TRIPOS>BOND
     1    1    2 1    
     2    1   67 1    
     3    1   68 1    
     4    1   69 1    
     5    2    3 2    
     6    2    4 am   BACKBONE|DICT|INTERRES
     7    4    5 1    
     8    4   70 1    
     9    5    6 1    
    10    5   65 1    
    11    5   71 1    
    12    6    7 1    
    13    6   72 1    
    14    6   73 1    
    15    7    8 1    
    16    8    9 1    
    17    8   74 1    
    18    8   75 1    
    19    9   10 ar   
    20    9   14 ar   
    21   10   11 ar   
    22   10   76 1    
    23   11   12 ar   
    24   11   48 1    
    25   12   13 ar   
    26   12   77 1    
    27   13   14 ar   
    28   13   15 1    
    29   14   78 1    
    30   15   16 1    
    31   15   79 1    
    32   15   80 1    
    33   16   17 1    
    34   17   18 1    
    35   17   81 1    
    36   17   82 1    
    37   18   19 1    
    38   18   22 1    
    39   18   83 1    
    40   19   20 am   BACKBONE|DICT|INTERRES
    41   19   21 2    
    42   20   84 1    
    43   20   85 1    
    44   22   23 am   BACKBONE|DICT|INTERRES
    45   22   86 1    
    46   23   24 2    
    47   23   25 1    
    48   25   26 1    
    49   25   27 1    
    50   25   87 1    
    51   26   88 1    
    52   26   89 1    
    53   26   90 1    
    54   27   28 am   BACKBONE|DICT|INTERRES
    55   27   91 1    
    56   28   29 2    
    57   28   30 1    
    58   30   31 1    
    59   30   32 1    
    60   30   92 1    
    61   31   93 1    
    62   31   94 1    
    63   31   95 1    
    64   32   33 am   BACKBONE|DICT|INTERRES
    65   32   96 1    
    66   33   34 2    
    67   33   35 1    
    68   35   36 1    
    69   35   37 1    
    70   35   97 1    
    71   36   98 1    
    72   36   99 1    
    73   36  100 1    
    74   37   38 am   BACKBONE|DICT|INTERRES
    75   37  101 1    
    76   38   39 2    
    77   38   40 1    
    78   40   41 1    
    79   40   42 1    
    80   40  102 1    
    81   41  103 1    
    82   41  104 1    
    83   41  105 1    
    84   42   43 am   BACKBONE|DICT|INTERRES
    85   42  106 1    
    86   43   44 2    
    87   43   45 1    
    88   45   46 1    
    89   45   49 1    
    90   45  107 1    
    91   46   47 1    
    92   46  108 1    
    93   46  109 1    
    94   47   48 1    
    95   48  110 1    
    96   48  111 1    
    97   49   50 am   BACKBONE|DICT|INTERRES
    98   49  112 1    
    99   50   51 2    
   100   50   52 1    
   101   52   53 1    
   102   52   54 1    
   103   52  113 1    
   104   53  114 1    
   105   53  115 1    
   106   53  116 1    
   107   54   55 am   BACKBONE|DICT|INTERRES
   108   54  117 1    
   109   55   56 2    
   110   55   57 1    
   111   57   58 1    
   112   57   59 1    
   113   57  118 1    
   114   58  119 1    
   115   58  120 1    
   116   58  121 1    
   117   59   60 am   BACKBONE|DICT|INTERRES
   118   59  122 1    
   119   60   61 2    
   120   60   62 1    
   121   62   63 1    
   122   62   64 1    
   123   62  123 1    
   124   63  124 1    
   125   63  125 1    
   126   63  126 1    
   127   64   65 am   BACKBONE|DICT|INTERRES
   128   64  127 1    
   129   65   66 2    
@<TRIPOS>SUBSTRUCTURE
     1 UNK         1 GROUP             0       ****    0 ROOT    
