@<TRIPOS>MOLECULE
3R134
127   129    1
SMALL
USER_CHARGES


@<TRIPOS>ATOM
      1 CA         33.1026  -44.4899  -59.5420 C.3       0 UNK        -0.1968 
      2 C          32.6039  -45.1342  -58.2580 C.2       0 UNK         0.4852 
      3 O          31.4528  -45.5638  -58.2014 O.2       0 UNK        -0.5359 
      4 N          33.4589  -45.2085  -57.2297 N.am      1 UNK        -0.4300 
      5 CA         33.1374  -45.7605  -55.9054 C.3       1 UNK         0.0863 
      6 C6         34.1753  -45.3438  -54.8359 C.3       11 UNK        -0.0953 
      7 S7         34.3620  -43.5356  -54.7052 S.3       11 UNK        -0.2369 
      8 C8         33.5391  -43.1900  -53.1136 C.3       11 UNK         0.0226 
      9 C9         32.0110  -43.2609  -53.1347 C.ar      11 UNK        -0.0699 
     10 C10        31.3375  -43.6042  -51.9576 C.ar      11 UNK        -0.0804 
     11 C11        29.9423  -43.5628  -51.8941 C.ar      11 UNK        -0.0871 
     12 C12        29.2157  -43.1981  -53.0306 C.ar      11 UNK        -0.1008 
     13 C13        29.8658  -42.8762  -54.2288 C.ar      11 UNK        -0.0735 
     14 C14        31.2644  -42.9022  -54.2659 C.ar      11 UNK        -0.0945 
     15 C15        29.0968  -42.4217  -55.4721 C.3       11 UNK         0.0169 
     16 S16        27.3996  -43.0832  -55.6029 S.3       11 UNK        -0.2669 
     17 C17        26.7360  -42.0961  -56.9875 C.3       11 UNK        -0.0850 
     18 CA         25.8422  -42.9381  -57.9440 C.3       10 UNK         0.0855 
     19 C          25.0623  -42.0601  -58.9714 C.2       10 UNK         0.5543 
     20 N          24.7642  -42.5536  -60.1673 N.am      10 UNK        -0.7343 
     21 O          24.6907  -40.9272  -58.6736 O.2       10 UNK        -0.5027 
     22 N          26.5530  -44.0910  -58.5274 N.am      10 UNK        -0.4495 
     23 C          27.5905  -44.0436  -59.3716 C.2       10 UNK         0.4903 
     24 O          28.0968  -42.9997  -59.7865 O.2       10 UNK        -0.4860 
     25 CA         28.1607  -45.4055  -59.8058 C.3       9 UNK         0.0227 
     26 CB         29.1943  -45.2808  -60.9408 C.3       9 UNK        -0.1964 
     27 N          28.7845  -46.0878  -58.6739 N.am      9 UNK        -0.4231 
     28 C          28.1457  -46.7716  -57.7187 C.2       9 UNK         0.5014 
     29 O          26.9207  -46.9243  -57.6827 O.2       9 UNK        -0.5270 
     30 CA         29.0369  -47.3266  -56.5967 C.3       8 UNK         0.0284 
     31 CB         29.2866  -46.2490  -55.5323 C.3       8 UNK        -0.1977 
     32 N          28.4852  -48.5228  -55.9576 N.am      8 UNK        -0.4342 
     33 C          28.3631  -49.7177  -56.5547 C.2       8 UNK         0.5039 
     34 O          28.6520  -49.9168  -57.7361 O.2       8 UNK        -0.5547 
     35 CA         27.8767  -50.9090  -55.7070 C.3       7 UNK         0.0281 
     36 CB         28.8907  -52.0671  -55.7664 C.3       7 UNK        -0.1963 
     37 N          27.6769  -50.5496  -54.3021 N.am      7 UNK        -0.4444 
     38 C          26.4963  -50.5113  -53.6703 C.2       7 UNK         0.5104 
     39 O          25.4248  -50.7973  -54.2059 O.2       7 UNK        -0.5100 
     40 CA         26.4936  -50.0878  -52.1854 C.3       6 UNK         0.0396 
     41 CB         26.3636  -51.3239  -51.2809 C.3       6 UNK        -0.1801 
     42 N          27.6662  -49.3132  -51.7642 N.am      6 UNK        -0.4747 
     43 C          28.0159  -48.1137  -52.2527 C.2       6 UNK         0.5012 
     44 O          27.3703  -47.5253  -53.1195 O.2       6 UNK        -0.5003 
     45 CA         29.3493  -47.5115  -51.7464 C.3       5 UNK         0.0782 
     46 C46        29.1582  -46.6644  -50.4628 C.3       11 UNK        -0.0868 
     47 S47        28.0594  -45.2202  -50.6651 S.3       11 UNK        -0.2515 
     48 C48        29.2195  -43.8191  -50.5773 C.3       11 UNK         0.0199 
     49 N          30.4064  -48.5154  -51.5390 N.am      5 UNK        -0.4607 
     50 C          30.8055  -49.4554  -52.4071 C.2       4 UNK         0.5031 
     51 O          30.2842  -49.6549  -53.5069 O.2       4 UNK        -0.5119 
     52 CA         31.9297  -50.3807  -51.9331 C.3       4 UNK         0.0263 
     53 CB         31.3640  -51.4751  -51.0052 C.3       4 UNK        -0.1967 
     54 N          32.5444  -50.9771  -53.1135 N.am      4 UNK        -0.4237 
     55 C          33.6924  -51.6630  -53.1584 C.2       3 UNK         0.4908 
     56 O          34.4006  -51.8820  -52.1747 O.2       3 UNK        -0.5102 
     57 CA         34.1269  -52.2084  -54.5311 C.3       3 UNK         0.0241 
     58 CB         33.6294  -53.6519  -54.7142 C.3       3 UNK        -0.1971 
     59 N          33.6508  -51.3896  -55.6492 N.am      3 UNK        -0.4139 
     60 C          34.1570  -50.1950  -55.9840 C.2       2 UNK         0.5016 
     61 O          35.1447  -49.6977  -55.4369 O.2       2 UNK        -0.5319 
     62 CA         33.4634  -49.4345  -57.1353 C.3       2 UNK         0.0286 
     63 CB         32.0184  -49.9083  -57.4135 C.3       2 UNK        -0.1963 
     64 N          33.4878  -47.9793  -56.9370 N.am      2 UNK        -0.4790 
     65 C          32.9696  -47.2953  -55.9030 C.2       1 UNK         0.5024 
     66 O          32.3839  -47.8220  -54.9585 O.2       1 UNK        -0.4888 
     67 H67        33.0271  -45.1958  -60.3686 H         1 UNK         0.0892 
     68 H68        32.4946  -43.6180  -59.7820 H         1 UNK         0.0892 
     69 H69        34.1409  -44.1688  -59.4619 H         1 UNK         0.0892 
     70 H70        34.3878  -44.8229  -57.3246 H         1 UNK         0.3107 
     71 H71        32.1720  -45.3477  -55.6067 H         1 UNK         0.0773 
     72 H72        35.1545  -45.7666  -55.0686 H         1 UNK         0.0680 
     73 H73        33.8991  -45.7438  -53.8581 H         1 UNK         0.0680 
     74 H74        33.8213  -42.1837  -52.8019 H         1 UNK         0.0650 
     75 H75        33.9428  -43.8659  -52.3582 H         1 UNK         0.0650 
     76 H76        31.9049  -43.8567  -51.0720 H         1 UNK         0.1397 
     77 H77        28.1381  -43.1454  -52.9643 H         1 UNK         0.1363 
     78 H78        31.7717  -42.6108  -55.1749 H         1 UNK         0.1355 
     79 H79        29.0523  -41.3319  -55.4639 H         1 UNK         0.0707 
     80 H80        29.6428  -42.7089  -56.3726 H         1 UNK         0.0707 
     81 H81        26.1654  -41.2752  -56.5496 H         1 UNK         0.1034 
     82 H82        27.5523  -41.6308  -57.5422 H         1 UNK         0.1034 
     83 H83        25.0563  -43.3792  -57.3300 H         1 UNK         0.0482 
     84 H84        24.2506  -41.9865  -60.8233 H         1 UNK         0.3460 
     85 H85        25.0512  -43.4857  -60.4191 H         1 UNK         0.3460 
     86 H86        26.2518  -45.0062  -58.2102 H         1 UNK         0.2989 
     87 H87        27.3313  -46.0125  -60.1746 H         1 UNK         0.0559 
     88 H88        30.0627  -44.6963  -60.6341 H         1 UNK         0.0848 
     89 H89        28.7605  -44.7894  -61.8127 H         1 UNK         0.0848 
     90 H90        29.5488  -46.2598  -61.2635 H         1 UNK         0.0848 
     91 H91        29.7897  -45.9377  -58.5584 H         1 UNK         0.3144 
     92 H92        29.9992  -47.6041  -57.0316 H         1 UNK         0.0727 
     93 H93        29.7150  -45.3512  -55.9786 H         1 UNK         0.0790 
     94 H94        29.9896  -46.5963  -54.7778 H         1 UNK         0.0790 
     95 H95        28.3651  -45.9518  -55.0310 H         1 UNK         0.0790 
     96 H96        28.1738  -48.4205  -55.0003 H         1 UNK         0.3215 
     97 H97        26.9406  -51.2509  -56.1532 H         1 UNK         0.0863 
     98 H98        29.8609  -51.7724  -55.3646 H         1 UNK         0.0808 
     99 H99        29.0494  -52.4008  -56.7927 H         1 UNK         0.0808 
    100 H100       28.5408  -52.9290  -55.1982 H         1 UNK         0.0808 
    101 H101       28.5179  -50.2682  -53.8022 H         1 UNK         0.3118 
    102 H102       25.6141  -49.4592  -52.0319 H         1 UNK         0.0546 
    103 H103       27.2287  -51.9822  -51.3707 H         1 UNK         0.0828 
    104 H104       25.4811  -51.9092  -51.5434 H         1 UNK         0.0828 
    105 H105       26.2610  -51.0420  -50.2329 H         1 UNK         0.0828 
    106 H106       28.2669  -49.7383  -51.0727 H         1 UNK         0.3005 
    107 H107       29.7102  -46.8436  -52.5300 H         1 UNK         0.1257 
    108 H108       28.7562  -47.2823  -49.6576 H         1 UNK         0.0775 
    109 H109       30.1280  -46.3132  -50.1072 H         1 UNK         0.0775 
    110 H110       28.6540  -42.9230  -50.3176 H         1 UNK         0.0840 
    111 H111       29.9239  -43.9737  -49.7585 H         1 UNK         0.0840 
    112 H112       30.8880  -48.4588  -50.6533 H         1 UNK         0.2987 
    113 H113       32.6796  -49.7880  -51.4054 H         1 UNK         0.0785 
    114 H114       30.8759  -51.0402  -50.1323 H         1 UNK         0.0798 
    115 H115       32.1493  -52.1334  -50.6340 H         1 UNK         0.0798 
    116 H116       30.6262  -52.0935  -51.5185 H         1 UNK         0.0798 
    117 H117       32.0362  -50.7841  -53.9683 H         1 UNK         0.3079 
    118 H118       35.2191  -52.2192  -54.5513 H         1 UNK         0.0794 
    119 H119       33.9899  -54.2932  -53.9085 H         1 UNK         0.0786 
    120 H120       33.9875  -54.0798  -55.6508 H         1 UNK         0.0786 
    121 H121       32.5399  -53.7087  -54.7124 H         1 UNK         0.0786 
    122 H122       32.8555  -51.7376  -56.1646 H         1 UNK         0.3032 
    123 H123       34.0576  -49.6340  -58.0285 H         1 UNK         0.1094 
    124 H124       31.9897  -50.9412  -57.7617 H         1 UNK         0.0794 
    125 H125       31.3904  -49.8368  -56.5243 H         1 UNK         0.0794 
    126 H126       31.5502  -49.3048  -58.1915 H         1 UNK         0.0794 
    127 H127       33.9815  -47.4493  -57.6408 H         1 UNK         0.3016 
@<TRIPOS>BOND
     1    1    2 1    
     2    1   67 1    
     3    1   68 1    
     4    1   69 1    
     5    2    3 2    
     6    2    4 am   BACKBONE|DICT|INTERRES
     7    4    5 1    
     8    4   70 1    
     9    5    6 1    
    10    5   65 1    
    11    5   71 1    
    12    6    7 1    
    13    6   72 1    
    14    6   73 1    
    15    7    8 1    
    16    8    9 1    
    17    8   74 1    
    18    8   75 1    
    19    9   10 ar   
    20    9   14 ar   
    21   10   11 ar   
    22   10   76 1    
    23   11   12 ar   
    24   11   48 1    
    25   12   13 ar   
    26   12   77 1    
    27   13   14 ar   
    28   13   15 1    
    29   14   78 1    
    30   15   16 1    
    31   15   79 1    
    32   15   80 1    
    33   16   17 1    
    34   17   18 1    
    35   17   81 1    
    36   17   82 1    
    37   18   19 1    
    38   18   22 1    
    39   18   83 1    
    40   19   20 am   BACKBONE|DICT|INTERRES
    41   19   21 2    
    42   20   84 1    
    43   20   85 1    
    44   22   23 am   BACKBONE|DICT|INTERRES
    45   22   86 1    
    46   23   24 2    
    47   23   25 1    
    48   25   26 1    
    49   25   27 1    
    50   25   87 1    
    51   26   88 1    
    52   26   89 1    
    53   26   90 1    
    54   27   28 am   BACKBONE|DICT|INTERRES
    55   27   91 1    
    56   28   29 2    
    57   28   30 1    
    58   30   31 1    
    59   30   32 1    
    60   30   92 1    
    61   31   93 1    
    62   31   94 1    
    63   31   95 1    
    64   32   33 am   BACKBONE|DICT|INTERRES
    65   32   96 1    
    66   33   34 2    
    67   33   35 1    
    68   35   36 1    
    69   35   37 1    
    70   35   97 1    
    71   36   98 1    
    72   36   99 1    
    73   36  100 1    
    74   37   38 am   BACKBONE|DICT|INTERRES
    75   37  101 1    
    76   38   39 2    
    77   38   40 1    
    78   40   41 1    
    79   40   42 1    
    80   40  102 1    
    81   41  103 1    
    82   41  104 1    
    83   41  105 1    
    84   42   43 am   BACKBONE|DICT|INTERRES
    85   42  106 1    
    86   43   44 2    
    87   43   45 1    
    88   45   46 1    
    89   45   49 1    
    90   45  107 1    
    91   46   47 1    
    92   46  108 1    
    93   46  109 1    
    94   47   48 1    
    95   48  110 1    
    96   48  111 1    
    97   49   50 am   BACKBONE|DICT|INTERRES
    98   49  112 1    
    99   50   51 2    
   100   50   52 1    
   101   52   53 1    
   102   52   54 1    
   103   52  113 1    
   104   53  114 1    
   105   53  115 1    
   106   53  116 1    
   107   54   55 am   BACKBONE|DICT|INTERRES
   108   54  117 1    
   109   55   56 2    
   110   55   57 1    
   111   57   58 1    
   112   57   59 1    
   113   57  118 1    
   114   58  119 1    
   115   58  120 1    
   116   58  121 1    
   117   59   60 am   BACKBONE|DICT|INTERRES
   118   59  122 1    
   119   60   61 2    
   120   60   62 1    
   121   62   63 1    
   122   62   64 1    
   123   62  123 1    
   124   63  124 1    
   125   63  125 1    
   126   63  126 1    
   127   64   65 am   BACKBONE|DICT|INTERRES
   128   64  127 1    
   129   65   66 2    
@<TRIPOS>SUBSTRUCTURE
     1 UNK         1 GROUP             0       ****    0 ROOT    
