@<TRIPOS>MOLECULE
3R134
127   129    1
SMALL
USER_CHARGES


@<TRIPOS>ATOM
      1 CA         32.9538  -45.2111  -58.6478 C.3       0 UNK        -0.1968 
      2 C          32.9310  -45.1981  -57.1265 C.2       0 UNK         0.4852 
      3 O          31.8716  -45.3827  -56.5306 O.2       0 UNK        -0.5359 
      4 N          34.0923  -44.9921  -56.4983 N.am      1 UNK        -0.4300 
      5 CA         34.2641  -44.9813  -55.0434 C.3       1 UNK         0.0863 
      6 C6         35.2326  -43.8573  -54.5942 C.3       11 UNK        -0.0953 
      7 S7         34.6855  -42.1998  -55.1347 S.3       11 UNK        -0.2369 
      8 C8         33.9835  -41.5004  -53.6091 C.3       11 UNK         0.0226 
      9 C9         32.6736  -42.1705  -53.2207 C.ar      11 UNK        -0.0699 
     10 C10        32.6640  -43.1887  -52.2639 C.ar      11 UNK        -0.0804 
     11 C11        31.4631  -43.7942  -51.8865 C.ar      11 UNK        -0.0871 
     12 C12        30.2637  -43.3574  -52.4521 C.ar      11 UNK        -0.1008 
     13 C13        30.2590  -42.3526  -53.4245 C.ar      11 UNK        -0.0735 
     14 C14        31.4693  -41.7618  -53.8041 C.ar      11 UNK        -0.0945 
     15 C15        28.9461  -41.8883  -54.0452 C.3       11 UNK         0.0169 
     16 S16        27.9354  -43.2697  -54.6743 S.3       11 UNK        -0.2669 
     17 C17        28.9425  -43.8625  -56.0772 C.3       11 UNK        -0.0850 
     18 CA         28.0630  -44.2149  -57.3045 C.3       10 UNK         0.0855 
     19 C          28.8976  -44.3825  -58.6079 C.2       10 UNK         0.5543 
     20 N          28.6312  -45.3709  -59.4538 N.am      10 UNK        -0.7343 
     21 O          29.7794  -43.5736  -58.8851 O.2       10 UNK        -0.5027 
     22 N          27.1929  -45.3704  -57.0239 N.am      10 UNK        -0.4495 
     23 C          25.8645  -45.3898  -57.1879 C.2       10 UNK         0.4903 
     24 O          25.2020  -44.4073  -57.5278 O.2       10 UNK        -0.4860 
     25 CA         25.1562  -46.7435  -56.9542 C.3       9 UNK         0.0227 
     26 CB         23.7241  -46.7724  -57.5277 C.3       9 UNK        -0.1964 
     27 N          25.9112  -47.9067  -57.4391 N.am      9 UNK        -0.4231 
     28 C          26.4410  -48.0906  -58.6604 C.2       9 UNK         0.5014 
     29 O          26.3417  -47.2754  -59.5781 O.2       9 UNK        -0.5270 
     30 CA         27.2514  -49.3763  -58.9003 C.3       8 UNK         0.0284 
     31 CB         28.6203  -49.0602  -59.5289 C.3       8 UNK        -0.1977 
     32 N          27.4605  -50.1243  -57.6582 N.am      8 UNK        -0.4342 
     33 C          27.1049  -51.4005  -57.4643 C.2       8 UNK         0.5039 
     34 O          26.6068  -52.1149  -58.3354 O.2       8 UNK        -0.5547 
     35 CA         27.3262  -51.9896  -56.0603 C.3       7 UNK         0.0281 
     36 CB         28.6428  -52.7821  -56.0050 C.3       7 UNK        -0.1963 
     37 N          27.2955  -51.0049  -54.9718 N.am      7 UNK        -0.4444 
     38 C          26.1993  -50.3234  -54.6008 C.2       7 UNK         0.5104 
     39 O          25.1375  -50.3514  -55.2218 O.2       7 UNK        -0.5100 
     40 CA         26.2970  -49.4516  -53.3428 C.3       6 UNK         0.0396 
     41 CB         26.1724  -50.3176  -52.0791 C.3       6 UNK        -0.1801 
     42 N          27.5615  -48.7230  -53.3070 N.am      6 UNK        -0.4747 
     43 C          27.6907  -47.3907  -53.3933 C.2       6 UNK         0.5012 
     44 O          26.7475  -46.6046  -53.4750 O.2       6 UNK        -0.5003 
     45 CA         29.1404  -46.8603  -53.3929 C.3       5 UNK         0.0782 
     46 C46        29.6551  -46.8563  -51.9251 C.3       11 UNK        -0.0868 
     47 S47        31.4424  -46.5383  -51.7261 S.3       11 UNK        -0.2515 
     48 C48        31.4654  -44.9290  -50.8784 C.3       11 UNK         0.0199 
     49 N          30.0190  -47.6373  -54.2747 N.am      5 UNK        -0.4607 
     50 C          29.7797  -48.0775  -55.5199 C.2       4 UNK         0.5031 
     51 O          28.8095  -47.7443  -56.2022 O.2       4 UNK        -0.5119 
     52 CA         30.7256  -49.1723  -56.0561 C.3       4 UNK         0.0263 
     53 CB         31.6928  -48.6134  -57.1083 C.3       4 UNK        -0.1967 
     54 N          31.5064  -49.8548  -55.0189 N.am      4 UNK        -0.4237 
     55 C          31.0440  -50.4985  -53.9390 C.2       3 UNK         0.4908 
     56 O          29.8459  -50.6952  -53.7208 O.2       3 UNK        -0.5102 
     57 CA         32.0871  -50.8930  -52.8779 C.3       3 UNK         0.0241 
     58 CB         32.8272  -52.1855  -53.2731 C.3       3 UNK        -0.1971 
     59 N          33.0189  -49.8014  -52.5274 N.am      3 UNK        -0.4139 
     60 C          33.9597  -49.2187  -53.2896 C.2       2 UNK         0.5016 
     61 O          34.2173  -49.5731  -54.4414 O.2       2 UNK        -0.5319 
     62 CA         34.7058  -48.0236  -52.6686 C.3       2 UNK         0.0286 
     63 CB         36.2217  -48.2866  -52.5632 C.3       2 UNK        -0.1963 
     64 N          34.4062  -46.7606  -53.3644 N.am      2 UNK        -0.4790 
     65 C          34.7858  -46.3585  -54.5883 C.2       1 UNK         0.5024 
     66 O          35.5450  -46.9874  -55.3295 O.2       1 UNK        -0.4888 
     67 H67        32.4341  -44.3353  -59.0349 H         1 UNK         0.0892 
     68 H68        33.9702  -45.2066  -59.0409 H         1 UNK         0.0892 
     69 H69        32.4483  -46.0996  -59.0248 H         1 UNK         0.0892 
     70 H70        34.9436  -44.8984  -57.0331 H         1 UNK         0.3107 
     71 H71        33.2981  -44.8081  -54.5637 H         1 UNK         0.0773 
     72 H72        35.3547  -43.8611  -53.5100 H         1 UNK         0.0680 
     73 H73        36.2293  -44.0251  -55.0071 H         1 UNK         0.0680 
     74 H74        34.7133  -41.5773  -52.8016 H         1 UNK         0.0650 
     75 H75        33.8135  -40.4336  -53.7613 H         1 UNK         0.0650 
     76 H76        33.5931  -43.5124  -51.8154 H         1 UNK         0.1397 
     77 H77        29.3310  -43.8133  -52.1507 H         1 UNK         0.1363 
     78 H78        31.4773  -40.9773  -54.5485 H         1 UNK         0.1355 
     79 H79        28.3731  -41.3540  -53.2864 H         1 UNK         0.0707 
     80 H80        29.1227  -41.1782  -54.8547 H         1 UNK         0.0707 
     81 H81        29.6758  -43.0946  -56.3305 H         1 UNK         0.1034 
     82 H82        29.5194  -44.7314  -55.7614 H         1 UNK         0.1034 
     83 H83        27.4446  -43.3386  -57.5052 H         1 UNK         0.0482 
     84 H84        27.8448  -45.9922  -59.3016 H         1 UNK         0.3460 
     85 H85        29.1719  -45.4466  -60.2995 H         1 UNK         0.3460 
     86 H86        27.6721  -46.2272  -56.7613 H         1 UNK         0.2989 
     87 H87        25.0823  -46.8606  -55.8720 H         1 UNK         0.0559 
     88 H88        23.1087  -45.9850  -57.0908 H         1 UNK         0.0848 
     89 H89        23.2307  -47.7208  -57.3151 H         1 UNK         0.0848 
     90 H90        23.7217  -46.6274  -58.6087 H         1 UNK         0.0848 
     91 H91        26.0212  -48.6544  -56.7693 H         1 UNK         0.3144 
     92 H92        26.6774  -49.9709  -59.6137 H         1 UNK         0.0727 
     93 H93        29.1894  -48.3630  -58.9149 H         1 UNK         0.0790 
     94 H94        28.5039  -48.6042  -60.5128 H         1 UNK         0.0790 
     95 H95        29.2183  -49.9622  -59.6595 H         1 UNK         0.0790 
     96 H96        27.8745  -49.6028  -56.8950 H         1 UNK         0.3215 
     97 H97        26.5092  -52.6922  -55.8810 H         1 UNK         0.0863 
     98 H98        28.7769  -53.2630  -55.0359 H         1 UNK         0.0808 
     99 H99        29.5102  -52.1485  -56.1859 H         1 UNK         0.0808 
    100 H100       28.6547  -53.5694  -56.7600 H         1 UNK         0.0808 
    101 H101       28.1462  -50.9238  -54.4189 H         1 UNK         0.3118 
    102 H102       25.4550  -48.7563  -53.3587 H         1 UNK         0.0546 
    103 H103       26.9889  -51.0361  -51.9953 H         1 UNK         0.0828 
    104 H104       25.2387  -50.8818  -52.0824 H         1 UNK         0.0828 
    105 H105       26.1752  -49.7031  -51.1788 H         1 UNK         0.0828 
    106 H106       28.4068  -49.2833  -53.2747 H         1 UNK         0.3005 
    107 H107       29.1263  -45.8368  -53.7658 H         1 UNK         0.1257 
    108 H108       29.0850  -46.1376  -51.3342 H         1 UNK         0.0775 
    109 H109       29.4765  -47.8250  -51.4531 H         1 UNK         0.0775 
    110 H110       30.6218  -44.8384  -50.1928 H         1 UNK         0.0840 
    111 H111       32.3608  -44.8760  -50.2571 H         1 UNK         0.0840 
    112 H112       30.8691  -47.9544  -53.8348 H         1 UNK         0.2987 
    113 H113       30.0976  -49.9186  -56.5418 H         1 UNK         0.0785 
    114 H114       31.1860  -47.9486  -57.8081 H         1 UNK         0.0798 
    115 H115       32.1471  -49.4150  -57.6906 H         1 UNK         0.0798 
    116 H116       32.4988  -48.0452  -56.6438 H         1 UNK         0.0798 
    117 H117       32.5188  -49.7420  -55.0676 H         1 UNK         0.3079 
    118 H118       31.5295  -51.1072  -51.9646 H         1 UNK         0.0794 
    119 H119       33.5207  -52.4981  -52.4925 H         1 UNK         0.0786 
    120 H120       33.3937  -52.0716  -54.1977 H         1 UNK         0.0786 
    121 H121       32.1222  -53.0036  -53.4267 H         1 UNK         0.0786 
    122 H122       32.8734  -49.4177  -51.6030 H         1 UNK         0.3032 
    123 H123       34.3390  -47.8901  -51.6493 H         1 UNK         0.1094 
    124 H124       36.6711  -48.5014  -53.5331 H         1 UNK         0.0794 
    125 H125       36.7447  -47.4331  -52.1318 H         1 UNK         0.0794 
    126 H126       36.4202  -49.1470  -51.9230 H         1 UNK         0.0794 
    127 H127       33.7572  -46.1640  -52.8680 H         1 UNK         0.3016 
@<TRIPOS>BOND
     1    1    2 1    
     2    1   67 1    
     3    1   68 1    
     4    1   69 1    
     5    2    3 2    
     6    2    4 am   BACKBONE|DICT|INTERRES
     7    4    5 1    
     8    4   70 1    
     9    5    6 1    
    10    5   65 1    
    11    5   71 1    
    12    6    7 1    
    13    6   72 1    
    14    6   73 1    
    15    7    8 1    
    16    8    9 1    
    17    8   74 1    
    18    8   75 1    
    19    9   10 ar   
    20    9   14 ar   
    21   10   11 ar   
    22   10   76 1    
    23   11   12 ar   
    24   11   48 1    
    25   12   13 ar   
    26   12   77 1    
    27   13   14 ar   
    28   13   15 1    
    29   14   78 1    
    30   15   16 1    
    31   15   79 1    
    32   15   80 1    
    33   16   17 1    
    34   17   18 1    
    35   17   81 1    
    36   17   82 1    
    37   18   19 1    
    38   18   22 1    
    39   18   83 1    
    40   19   20 am   BACKBONE|DICT|INTERRES
    41   19   21 2    
    42   20   84 1    
    43   20   85 1    
    44   22   23 am   BACKBONE|DICT|INTERRES
    45   22   86 1    
    46   23   24 2    
    47   23   25 1    
    48   25   26 1    
    49   25   27 1    
    50   25   87 1    
    51   26   88 1    
    52   26   89 1    
    53   26   90 1    
    54   27   28 am   BACKBONE|DICT|INTERRES
    55   27   91 1    
    56   28   29 2    
    57   28   30 1    
    58   30   31 1    
    59   30   32 1    
    60   30   92 1    
    61   31   93 1    
    62   31   94 1    
    63   31   95 1    
    64   32   33 am   BACKBONE|DICT|INTERRES
    65   32   96 1    
    66   33   34 2    
    67   33   35 1    
    68   35   36 1    
    69   35   37 1    
    70   35   97 1    
    71   36   98 1    
    72   36   99 1    
    73   36  100 1    
    74   37   38 am   BACKBONE|DICT|INTERRES
    75   37  101 1    
    76   38   39 2    
    77   38   40 1    
    78   40   41 1    
    79   40   42 1    
    80   40  102 1    
    81   41  103 1    
    82   41  104 1    
    83   41  105 1    
    84   42   43 am   BACKBONE|DICT|INTERRES
    85   42  106 1    
    86   43   44 2    
    87   43   45 1    
    88   45   46 1    
    89   45   49 1    
    90   45  107 1    
    91   46   47 1    
    92   46  108 1    
    93   46  109 1    
    94   47   48 1    
    95   48  110 1    
    96   48  111 1    
    97   49   50 am   BACKBONE|DICT|INTERRES
    98   49  112 1    
    99   50   51 2    
   100   50   52 1    
   101   52   53 1    
   102   52   54 1    
   103   52  113 1    
   104   53  114 1    
   105   53  115 1    
   106   53  116 1    
   107   54   55 am   BACKBONE|DICT|INTERRES
   108   54  117 1    
   109   55   56 2    
   110   55   57 1    
   111   57   58 1    
   112   57   59 1    
   113   57  118 1    
   114   58  119 1    
   115   58  120 1    
   116   58  121 1    
   117   59   60 am   BACKBONE|DICT|INTERRES
   118   59  122 1    
   119   60   61 2    
   120   60   62 1    
   121   62   63 1    
   122   62   64 1    
   123   62  123 1    
   124   63  124 1    
   125   63  125 1    
   126   63  126 1    
   127   64   65 am   BACKBONE|DICT|INTERRES
   128   64  127 1    
   129   65   66 2    
@<TRIPOS>SUBSTRUCTURE
     1 UNK         1 GROUP             0       ****    0 ROOT    
