@<TRIPOS>MOLECULE
3R134
127   129    1
SMALL
USER_CHARGES


@<TRIPOS>ATOM
      1 CA         34.5351  -44.9621  -47.3718 C.3       0 UNK        -0.1968 
      2 C          34.7500  -45.0951  -48.8725 C.2       0 UNK         0.4852 
      3 O          35.8943  -45.0754  -49.3299 O.2       0 UNK        -0.5359 
      4 N          33.6596  -45.2208  -49.6398 N.am      1 UNK        -0.4300 
      5 CA         33.6727  -45.4057  -51.0955 C.3       1 UNK         0.0863 
      6 C6         32.3056  -45.0622  -51.7397 C.3       11 UNK        -0.0953 
      7 S7         31.7069  -43.3956  -51.2899 S.3       11 UNK        -0.2369 
      8 C8         32.6498  -42.3171  -52.4161 C.3       11 UNK         0.0226 
      9 C9         32.1694  -42.4357  -53.8536 C.ar      11 UNK        -0.0699 
     10 C10        32.9137  -43.1579  -54.7913 C.ar      11 UNK        -0.0804 
     11 C11        32.4470  -43.3030  -56.1006 C.ar      11 UNK        -0.0871 
     12 C12        31.2606  -42.6715  -56.4844 C.ar      11 UNK        -0.1008 
     13 C13        30.4952  -41.9704  -55.5498 C.ar      11 UNK        -0.0735 
     14 C14        30.9612  -41.8452  -54.2378 C.ar      11 UNK        -0.0945 
     15 C15        29.1422  -41.3954  -55.9433 C.3       11 UNK         0.0169 
     16 S16        27.8571  -42.6919  -55.9720 S.3       11 UNK        -0.2669 
     17 C17        28.1308  -43.4580  -57.6089 C.3       11 UNK        -0.0850 
     18 CA         26.8038  -43.9000  -58.2818 C.3       10 UNK         0.0855 
     19 C          26.9793  -44.1440  -59.8123 C.2       10 UNK         0.5543 
     20 N          26.5039  -45.2425  -60.3867 N.am      10 UNK        -0.7343 
     21 O          27.5508  -43.3053  -60.5046 O.2       10 UNK        -0.5027 
     22 N          26.1922  -45.0291  -57.5623 N.am      10 UNK        -0.4495 
     23 C          24.8782  -45.2699  -57.4891 C.2       10 UNK         0.4903 
     24 O          24.0158  -44.5112  -57.9359 O.2       10 UNK        -0.4860 
     25 CA         24.4722  -46.6045  -56.8313 C.3       9 UNK         0.0227 
     26 CB         22.9638  -46.9051  -56.9552 C.3       9 UNK        -0.1964 
     27 N          25.2640  -47.7417  -57.3191 N.am      9 UNK        -0.4231 
     28 C          25.4144  -48.1476  -58.5904 C.2       9 UNK         0.5014 
     29 O          24.8595  -47.6055  -59.5470 O.2       9 UNK        -0.5270 
     30 CA         26.3741  -49.3208  -58.8711 C.3       8 UNK         0.0284 
     31 CB         27.5854  -48.8280  -59.6815 C.3       8 UNK        -0.1977 
     32 N          26.8573  -49.9951  -57.6640 N.am      8 UNK        -0.4342 
     33 C          26.1452  -50.8549  -56.9231 C.2       8 UNK         0.5039 
     34 O          25.0146  -51.2425  -57.2194 O.2       8 UNK        -0.5547 
     35 CA         26.7849  -51.3208  -55.6020 C.3       7 UNK         0.0281 
     36 CB         27.7419  -52.4984  -55.8432 C.3       7 UNK        -0.1963 
     37 N          27.4914  -50.2421  -54.9015 N.am      7 UNK        -0.4444 
     38 C          26.9079  -49.1252  -54.4406 C.2       7 UNK         0.5104 
     39 O          25.7001  -48.9026  -54.5115 O.2       7 UNK        -0.5100 
     40 CA         27.8302  -48.0450  -53.8598 C.3       6 UNK         0.0396 
     41 CB         28.1835  -48.3467  -52.3950 C.3       6 UNK        -0.1801 
     42 N          29.0534  -47.8965  -54.6462 N.am      6 UNK        -0.4747 
     43 C          29.1175  -47.3335  -55.8625 C.2       6 UNK         0.5012 
     44 O          28.1492  -46.8568  -56.4559 O.2       6 UNK        -0.5003 
     45 CA         30.5105  -47.3124  -56.5240 C.3       5 UNK         0.0782 
     46 C46        31.3307  -46.1511  -55.9206 C.3       11 UNK        -0.0868 
     47 S47        33.0318  -45.9914  -56.5799 S.3       11 UNK        -0.2515 
     48 C48        33.1556  -44.2328  -57.0764 C.3       11 UNK         0.0199 
     49 N          31.1999  -48.5973  -56.3898 N.am      5 UNK        -0.4607 
     50 C          30.7540  -49.7714  -56.8554 C.2       4 UNK         0.5031 
     51 O          29.7162  -49.9064  -57.5004 O.2       4 UNK        -0.5119 
     52 CA         31.5777  -51.0125  -56.4816 C.3       4 UNK         0.0263 
     53 CB         32.7008  -51.2432  -57.5041 C.3       4 UNK        -0.1967 
     54 N          32.1510  -50.9263  -55.1365 N.am      4 UNK        -0.4237 
     55 C          31.4607  -50.8039  -53.9964 C.2       3 UNK         0.4908 
     56 O          30.2304  -50.7684  -53.9472 O.2       3 UNK        -0.5102 
     57 CA         32.2720  -50.6652  -52.6960 C.3       3 UNK         0.0241 
     58 CB         32.8891  -52.0158  -52.2847 C.3       3 UNK        -0.1971 
     59 N          33.2832  -49.5942  -52.7003 N.am      3 UNK        -0.4139 
     60 C          34.3776  -49.4499  -53.4617 C.2       2 UNK         0.5016 
     61 O          34.6867  -50.2404  -54.3557 O.2       2 UNK        -0.5319 
     62 CA         35.2902  -48.2303  -53.1882 C.3       2 UNK         0.0286 
     63 CB         36.1202  -47.8455  -54.4284 C.3       2 UNK        -0.1963 
     64 N          34.6235  -47.0174  -52.6889 N.am      2 UNK        -0.4790 
     65 C          34.1185  -46.8381  -51.4608 C.2       1 UNK         0.5024 
     66 O          33.9850  -47.7549  -50.6466 O.2       1 UNK        -0.4888 
     67 H67        33.4776  -44.9772  -47.1083 H         1 UNK         0.0892 
     68 H68        34.9600  -44.0250  -47.0132 H         1 UNK         0.0892 
     69 H69        35.0264  -45.7822  -46.8488 H         1 UNK         0.0892 
     70 H70        32.7469  -45.2418  -49.2086 H         1 UNK         0.3107 
     71 H71        34.4195  -44.7227  -51.5058 H         1 UNK         0.0773 
     72 H72        31.5456  -45.7796  -51.4240 H         1 UNK         0.0680 
     73 H73        32.3558  -45.1386  -52.8263 H         1 UNK         0.0680 
     74 H74        32.5359  -41.2837  -52.0854 H         1 UNK         0.0650 
     75 H75        33.7139  -42.5439  -52.3387 H         1 UNK         0.0650 
     76 H76        33.8293  -43.6496  -54.4929 H         1 UNK         0.1397 
     77 H77        30.8968  -42.7871  -57.4952 H         1 UNK         0.1363 
     78 H78        30.3714  -41.3117  -53.5048 H         1 UNK         0.1355 
     79 H79        29.2067  -40.8973  -56.9117 H         1 UNK         0.0707 
     80 H80        28.8416  -40.6267  -55.2298 H         1 UNK         0.0707 
     81 H81        28.8090  -44.3057  -57.5007 H         1 UNK         0.1034 
     82 H82        28.6487  -42.7329  -58.2383 H         1 UNK         0.1034 
     83 H83        26.1198  -43.0515  -58.2190 H         1 UNK         0.0482 
     84 H84        25.9720  -45.9271  -59.8629 H         1 UNK         0.3460 
     85 H85        26.6278  -45.3635  -61.3789 H         1 UNK         0.3460 
     86 H86        26.8391  -45.7118  -57.1737 H         1 UNK         0.2989 
     87 H87        24.7039  -46.5044  -55.7700 H         1 UNK         0.0559 
     88 H88        22.7036  -47.8355  -56.4505 H         1 UNK         0.0848 
     89 H89        22.6521  -46.9898  -57.9969 H         1 UNK         0.0848 
     90 H90        22.3681  -46.1128  -56.5004 H         1 UNK         0.0848 
     91 H91        25.7678  -48.2484  -56.6019 H         1 UNK         0.3144 
     92 H92        25.8298  -50.0473  -59.4779 H         1 UNK         0.0727 
     93 H93        28.2549  -49.6503  -59.9348 H         1 UNK         0.0790 
     94 H94        28.1622  -48.0846  -59.1294 H         1 UNK         0.0790 
     95 H95        27.2720  -48.3670  -60.6191 H         1 UNK         0.0790 
     96 H96        27.8204  -49.8026  -57.3957 H         1 UNK         0.3215 
     97 H97        25.9805  -51.6638  -54.9476 H         1 UNK         0.0863 
     98 H98        28.1890  -52.8464  -54.9117 H         1 UNK         0.0808 
     99 H99        28.5496  -52.2291  -56.5232 H         1 UNK         0.0808 
    100 H100       27.2133  -53.3434  -56.2862 H         1 UNK         0.0808 
    101 H101       28.4899  -50.3622  -54.7511 H         1 UNK         0.3118 
    102 H102       27.2920  -47.0948  -53.8875 H         1 UNK         0.0546 
    103 H103       27.2812  -48.4223  -51.7868 H         1 UNK         0.0828 
    104 H104       28.7975  -47.5557  -51.9641 H         1 UNK         0.0828 
    105 H105       28.7247  -49.2873  -52.2894 H         1 UNK         0.0828 
    106 H106       29.8895  -48.3142  -54.2640 H         1 UNK         0.3005 
    107 H107       30.3653  -47.1245  -57.5902 H         1 UNK         0.1257 
    108 H108       31.4185  -46.2592  -54.8379 H         1 UNK         0.0775 
    109 H109       30.7739  -45.2301  -56.0800 H         1 UNK         0.0775 
    110 H110       34.2079  -43.9544  -57.1476 H         1 UNK         0.0840 
    111 H111       32.7431  -44.1248  -58.0807 H         1 UNK         0.0840 
    112 H112       32.0790  -48.5800  -55.8948 H         1 UNK         0.2987 
    113 H113       30.9104  -51.8756  -56.5022 H         1 UNK         0.0785 
    114 H114       33.4228  -50.4254  -57.5031 H         1 UNK         0.0798 
    115 H115       32.2981  -51.3239  -58.5149 H         1 UNK         0.0798 
    116 H116       33.2413  -52.1669  -57.2967 H         1 UNK         0.0798 
    117 H117       33.1670  -50.8813  -55.0607 H         1 UNK         0.3079 
    118 H118       31.5584  -50.3873  -51.9184 H         1 UNK         0.0794 
    119 H119       33.6335  -52.3631  -53.0020 H         1 UNK         0.0786 
    120 H120       32.1227  -52.7888  -52.2132 H         1 UNK         0.0786 
    121 H121       33.3718  -51.9483  -51.3097 H         1 UNK         0.0786 
    122 H122       33.1797  -48.9041  -51.9622 H         1 UNK         0.3032 
    123 H123       35.9905  -48.5574  -52.4162 H         1 UNK         0.1094 
    124 H124       35.4828  -47.5399  -55.2590 H         1 UNK         0.0794 
    125 H125       36.8062  -47.0264  -54.2113 H         1 UNK         0.0794 
    126 H126       36.7283  -48.6824  -54.7749 H         1 UNK         0.0794 
    127 H127       34.6465  -46.2245  -53.3141 H         1 UNK         0.3016 
@<TRIPOS>BOND
     1    1    2 1    
     2    1   67 1    
     3    1   68 1    
     4    1   69 1    
     5    2    3 2    
     6    2    4 am   BACKBONE|DICT|INTERRES
     7    4    5 1    
     8    4   70 1    
     9    5    6 1    
    10    5   65 1    
    11    5   71 1    
    12    6    7 1    
    13    6   72 1    
    14    6   73 1    
    15    7    8 1    
    16    8    9 1    
    17    8   74 1    
    18    8   75 1    
    19    9   10 ar   
    20    9   14 ar   
    21   10   11 ar   
    22   10   76 1    
    23   11   12 ar   
    24   11   48 1    
    25   12   13 ar   
    26   12   77 1    
    27   13   14 ar   
    28   13   15 1    
    29   14   78 1    
    30   15   16 1    
    31   15   79 1    
    32   15   80 1    
    33   16   17 1    
    34   17   18 1    
    35   17   81 1    
    36   17   82 1    
    37   18   19 1    
    38   18   22 1    
    39   18   83 1    
    40   19   20 am   BACKBONE|DICT|INTERRES
    41   19   21 2    
    42   20   84 1    
    43   20   85 1    
    44   22   23 am   BACKBONE|DICT|INTERRES
    45   22   86 1    
    46   23   24 2    
    47   23   25 1    
    48   25   26 1    
    49   25   27 1    
    50   25   87 1    
    51   26   88 1    
    52   26   89 1    
    53   26   90 1    
    54   27   28 am   BACKBONE|DICT|INTERRES
    55   27   91 1    
    56   28   29 2    
    57   28   30 1    
    58   30   31 1    
    59   30   32 1    
    60   30   92 1    
    61   31   93 1    
    62   31   94 1    
    63   31   95 1    
    64   32   33 am   BACKBONE|DICT|INTERRES
    65   32   96 1    
    66   33   34 2    
    67   33   35 1    
    68   35   36 1    
    69   35   37 1    
    70   35   97 1    
    71   36   98 1    
    72   36   99 1    
    73   36  100 1    
    74   37   38 am   BACKBONE|DICT|INTERRES
    75   37  101 1    
    76   38   39 2    
    77   38   40 1    
    78   40   41 1    
    79   40   42 1    
    80   40  102 1    
    81   41  103 1    
    82   41  104 1    
    83   41  105 1    
    84   42   43 am   BACKBONE|DICT|INTERRES
    85   42  106 1    
    86   43   44 2    
    87   43   45 1    
    88   45   46 1    
    89   45   49 1    
    90   45  107 1    
    91   46   47 1    
    92   46  108 1    
    93   46  109 1    
    94   47   48 1    
    95   48  110 1    
    96   48  111 1    
    97   49   50 am   BACKBONE|DICT|INTERRES
    98   49  112 1    
    99   50   51 2    
   100   50   52 1    
   101   52   53 1    
   102   52   54 1    
   103   52  113 1    
   104   53  114 1    
   105   53  115 1    
   106   53  116 1    
   107   54   55 am   BACKBONE|DICT|INTERRES
   108   54  117 1    
   109   55   56 2    
   110   55   57 1    
   111   57   58 1    
   112   57   59 1    
   113   57  118 1    
   114   58  119 1    
   115   58  120 1    
   116   58  121 1    
   117   59   60 am   BACKBONE|DICT|INTERRES
   118   59  122 1    
   119   60   61 2    
   120   60   62 1    
   121   62   63 1    
   122   62   64 1    
   123   62  123 1    
   124   63  124 1    
   125   63  125 1    
   126   63  126 1    
   127   64   65 am   BACKBONE|DICT|INTERRES
   128   64  127 1    
   129   65   66 2    
@<TRIPOS>SUBSTRUCTURE
     1 UNK         1 GROUP             0       ****    0 ROOT    
