@<TRIPOS>MOLECULE
3R134
127   129    1
SMALL
USER_CHARGES


@<TRIPOS>ATOM
      1 CA         26.4942  -47.3739  -52.1709 C.3       0 UNK        -0.1968 
      2 C          27.9568  -47.0433  -51.9185 C.2       0 UNK         0.4852 
      3 O          28.4065  -47.1115  -50.7724 O.2       0 UNK        -0.5359 
      4 N          28.7114  -46.6993  -52.9713 N.am      1 UNK        -0.4300 
      5 CA         30.1487  -46.4204  -52.9212 C.3       1 UNK         0.0863 
      6 C6         30.5981  -45.5145  -54.0948 C.3       11 UNK        -0.0953 
      7 S7         32.2899  -44.8666  -53.8475 S.3       11 UNK        -0.2369 
      8 C8         32.3334  -43.4608  -55.0083 C.3       11 UNK         0.0226 
      9 C9         31.9890  -43.8459  -56.4435 C.ar      11 UNK        -0.0699 
     10 C10        32.5441  -44.9818  -57.0420 C.ar      11 UNK        -0.0804 
     11 C11        32.1997  -45.3404  -58.3483 C.ar      11 UNK        -0.0871 
     12 C12        31.2902  -44.5503  -59.0590 C.ar      11 UNK        -0.1008 
     13 C13        30.7405  -43.4026  -58.4790 C.ar      11 UNK        -0.0735 
     14 C14        31.1123  -43.0467  -57.1804 C.ar      11 UNK        -0.0945 
     15 C15        29.7580  -42.5417  -59.2596 C.3       11 UNK         0.0169 
     16 S16        28.0558  -42.7071  -58.6275 S.3       11 UNK        -0.2669 
     17 C17        27.9668  -41.3915  -57.3595 C.3       11 UNK        -0.0850 
     18 CA         27.8708  -41.9123  -55.8988 C.3       10 UNK         0.0855 
     19 C          27.8436  -40.7081  -54.9116 C.2       10 UNK         0.5543 
     20 N          26.7247  -40.4018  -54.2666 N.am      10 UNK        -0.7343 
     21 O          28.8588  -40.0392  -54.7369 O.2       10 UNK        -0.5027 
     22 N          26.7898  -42.8982  -55.7424 N.am      10 UNK        -0.4495 
     23 C          26.5599  -43.6368  -54.6490 C.2       10 UNK         0.4903 
     24 O          27.1973  -43.5511  -53.6000 O.2       10 UNK        -0.4860 
     25 CA         25.4337  -44.6745  -54.7660 C.3       9 UNK         0.0227 
     26 CB         24.0532  -44.0005  -54.6993 C.3       9 UNK        -0.1964 
     27 N          25.5395  -45.4804  -55.9858 N.am      9 UNK        -0.4231 
     28 C          26.5271  -46.3506  -56.2351 C.2       9 UNK         0.5014 
     29 O          27.4596  -46.5841  -55.4618 O.2       9 UNK        -0.5270 
     30 CA         26.4726  -47.0896  -57.5770 C.3       8 UNK         0.0284 
     31 CB         27.5601  -46.5651  -58.5295 C.3       8 UNK        -0.1977 
     32 N          26.6707  -48.5183  -57.3402 N.am      8 UNK        -0.4342 
     33 C          25.6953  -49.3663  -56.9881 C.2       8 UNK         0.5039 
     34 O          24.5060  -49.0524  -56.9211 O.2       8 UNK        -0.5547 
     35 CA         26.1096  -50.8098  -56.6579 C.3       7 UNK         0.0281 
     36 CB         26.0379  -51.6912  -57.9152 C.3       7 UNK        -0.1963 
     37 N          27.4523  -50.9013  -56.0819 N.am      7 UNK        -0.4444 
     38 C          27.7817  -50.5573  -54.8321 C.2       7 UNK         0.5104 
     39 O          26.9722  -50.1375  -54.0062 O.2       7 UNK        -0.5100 
     40 CA         29.2597  -50.7090  -54.4236 C.3       6 UNK         0.0396 
     41 CB         29.6084  -52.1788  -54.1236 C.3       6 UNK        -0.1801 
     42 N          30.2333  -50.1041  -55.3476 N.am      6 UNK        -0.4747 
     43 C          30.4917  -50.4206  -56.6245 C.2       6 UNK         0.5012 
     44 O          29.9308  -51.3350  -57.2301 O.2       6 UNK        -0.5003 
     45 CA         31.5132  -49.5484  -57.3769 C.3       5 UNK         0.0782 
     46 C46        30.8150  -48.3264  -58.0246 C.3       11 UNK        -0.0868 
     47 S47        31.6313  -47.7978  -59.5653 S.3       11 UNK        -0.2515 
     48 C48        32.8401  -46.5601  -58.9980 C.3       11 UNK         0.0199 
     49 N          32.6529  -49.1459  -56.5437 N.am      5 UNK        -0.4607 
     50 C          33.6541  -49.9682  -56.2019 C.2       4 UNK         0.5031 
     51 O          33.6606  -51.1773  -56.4409 O.2       4 UNK        -0.5119 
     52 CA         34.8759  -49.3319  -55.5290 C.3       4 UNK         0.0263 
     53 CB         35.4709  -48.1771  -56.3597 C.3       4 UNK        -0.1967 
     54 N          34.5813  -48.8892  -54.1667 N.am      4 UNK        -0.4237 
     55 C          35.5116  -48.8019  -53.2017 C.2       3 UNK         0.4908 
     56 O          36.7005  -49.0746  -53.3773 O.2       3 UNK        -0.5102 
     57 CA         35.0744  -48.3291  -51.8014 C.3       3 UNK         0.0241 
     58 CB         35.4189  -46.8427  -51.6094 C.3       3 UNK        -0.1971 
     59 N          33.6526  -48.5237  -51.5264 N.am      3 UNK        -0.4139 
     60 C          33.0300  -49.7061  -51.4364 C.2       2 UNK         0.5016 
     61 O          33.6133  -50.7901  -51.4613 O.2       2 UNK        -0.5319 
     62 CA         31.4939  -49.6810  -51.3272 C.3       2 UNK         0.0286 
     63 CB         31.0430  -50.1009  -49.9192 C.3       2 UNK        -0.1963 
     64 N          30.8650  -48.3946  -51.6609 N.am      2 UNK        -0.4790 
     65 C          30.9375  -47.7450  -52.8312 C.2       1 UNK         0.5024 
     66 O          31.5798  -48.1633  -53.7986 O.2       1 UNK        -0.4888 
     67 H67        26.2875  -47.5120  -53.2315 H         1 UNK         0.0892 
     68 H68        26.2271  -48.2994  -51.6616 H         1 UNK         0.0892 
     69 H69        25.8559  -46.5769  -51.7912 H         1 UNK         0.0892 
     70 H70        28.2852  -46.6644  -53.8995 H         1 UNK         0.3107 
     71 H71        30.3447  -45.8657  -52.0008 H         1 UNK         0.0773 
     72 H72        29.9209  -44.6627  -54.1814 H         1 UNK         0.0680 
     73 H73        30.5412  -46.0428  -55.0486 H         1 UNK         0.0680 
     74 H74        33.3314  -43.0217  -54.9914 H         1 UNK         0.0650 
     75 H75        31.6492  -42.6941  -54.6407 H         1 UNK         0.0650 
     76 H76        33.2443  -45.5846  -56.4826 H         1 UNK         0.1397 
     77 H77        31.0175  -44.8288  -60.0679 H         1 UNK         0.1363 
     78 H78        30.7115  -42.1463  -56.7394 H         1 UNK         0.1355 
     79 H79        30.0768  -41.4988  -59.2427 H         1 UNK         0.0707 
     80 H80        29.7577  -42.8350  -60.3105 H         1 UNK         0.0707 
     81 H81        28.8245  -40.7255  -57.4683 H         1 UNK         0.1034 
     82 H82        27.0938  -40.7780  -57.5908 H         1 UNK         0.1034 
     83 H83        28.7875  -42.4560  -55.6711 H         1 UNK         0.0482 
     84 H84        25.8917  -40.9511  -54.4023 H         1 UNK         0.3460 
     85 H85        26.7185  -39.6211  -53.6292 H         1 UNK         0.3460 
     86 H86        26.2262  -43.0599  -56.5633 H         1 UNK         0.2989 
     87 H87        25.5141  -45.3469  -53.9119 H         1 UNK         0.0559 
     88 H88        23.8799  -43.3349  -55.5457 H         1 UNK         0.0848 
     89 H89        23.9546  -43.4045  -53.7908 H         1 UNK         0.0848 
     90 H90        23.2521  -44.7399  -54.6854 H         1 UNK         0.0848 
     91 H91        24.8108  -45.3628  -56.6754 H         1 UNK         0.3144 
     92 H92        25.4998  -46.9353  -58.0491 H         1 UNK         0.0727 
     93 H93        27.3173  -45.5581  -58.8673 H         1 UNK         0.0790 
     94 H94        27.6529  -47.1878  -59.4194 H         1 UNK         0.0790 
     95 H95        28.5375  -46.5114  -58.0490 H         1 UNK         0.0790 
     96 H96        27.6231  -48.8452  -57.2999 H         1 UNK         0.3215 
     97 H97        25.3964  -51.1978  -55.9272 H         1 UNK         0.0863 
     98 H98        26.7465  -51.3664  -58.6783 H         1 UNK         0.0808 
     99 H99        25.0417  -51.6578  -58.3589 H         1 UNK         0.0808 
    100 H100       26.2520  -52.7341  -57.6808 H         1 UNK         0.0808 
    101 H101       28.2054  -51.2348  -56.6814 H         1 UNK         0.3118 
    102 H102       29.3618  -50.1564  -53.4906 H         1 UNK         0.0546 
    103 H103       29.5139  -52.8114  -55.0065 H         1 UNK         0.0828 
    104 H104       28.9445  -52.5876  -53.3607 H         1 UNK         0.0828 
    105 H105       30.6283  -52.2764  -53.7521 H         1 UNK         0.0828 
    106 H106       30.7655  -49.3333  -54.9482 H         1 UNK         0.3005 
    107 H107       31.8986  -50.1847  -58.1780 H         1 UNK         0.1257 
    108 H108       30.7299  -47.4941  -57.3242 H         1 UNK         0.0775 
    109 H109       29.7930  -48.5725  -58.3170 H         1 UNK         0.0775 
    110 H110       33.5461  -47.0423  -58.3232 H         1 UNK         0.0840 
    111 H111       33.4249  -46.2285  -59.8567 H         1 UNK         0.0840 
    112 H112       32.6918  -48.1756  -56.2659 H         1 UNK         0.2987 
    113 H113       35.6294  -50.1218  -55.4812 H         1 UNK         0.0785 
    114 H114       35.5615  -48.4509  -57.4116 H         1 UNK         0.0798 
    115 H115       36.4703  -47.9181  -56.0101 H         1 UNK         0.0798 
    116 H116       34.8617  -47.2768  -56.2993 H         1 UNK         0.0798 
    117 H117       33.6121  -48.6751  -53.9527 H         1 UNK         0.3079 
    118 H118       35.6381  -48.9118  -51.0697 H         1 UNK         0.0794 
    119 H119       36.4825  -46.6637  -51.7740 H         1 UNK         0.0786 
    120 H120       35.1894  -46.5081  -50.5975 H         1 UNK         0.0786 
    121 H121       34.8702  -46.2081  -52.3070 H         1 UNK         0.0786 
    122 H122       33.0810  -47.6928  -51.4863 H         1 UNK         0.3032 
    123 H123       31.1288  -50.4246  -52.0363 H         1 UNK         0.1094 
    124 H124       31.4602  -51.0712  -49.6457 H         1 UNK         0.0794 
    125 H125       31.3633  -49.3829  -49.1632 H         1 UNK         0.0794 
    126 H126       29.9579  -50.1897  -49.8601 H         1 UNK         0.0794 
    127 H127       30.2439  -47.9985  -50.9611 H         1 UNK         0.3016 
@<TRIPOS>BOND
     1    1    2 1    
     2    1   67 1    
     3    1   68 1    
     4    1   69 1    
     5    2    3 2    
     6    2    4 am   BACKBONE|DICT|INTERRES
     7    4    5 1    
     8    4   70 1    
     9    5    6 1    
    10    5   65 1    
    11    5   71 1    
    12    6    7 1    
    13    6   72 1    
    14    6   73 1    
    15    7    8 1    
    16    8    9 1    
    17    8   74 1    
    18    8   75 1    
    19    9   10 ar   
    20    9   14 ar   
    21   10   11 ar   
    22   10   76 1    
    23   11   12 ar   
    24   11   48 1    
    25   12   13 ar   
    26   12   77 1    
    27   13   14 ar   
    28   13   15 1    
    29   14   78 1    
    30   15   16 1    
    31   15   79 1    
    32   15   80 1    
    33   16   17 1    
    34   17   18 1    
    35   17   81 1    
    36   17   82 1    
    37   18   19 1    
    38   18   22 1    
    39   18   83 1    
    40   19   20 am   BACKBONE|DICT|INTERRES
    41   19   21 2    
    42   20   84 1    
    43   20   85 1    
    44   22   23 am   BACKBONE|DICT|INTERRES
    45   22   86 1    
    46   23   24 2    
    47   23   25 1    
    48   25   26 1    
    49   25   27 1    
    50   25   87 1    
    51   26   88 1    
    52   26   89 1    
    53   26   90 1    
    54   27   28 am   BACKBONE|DICT|INTERRES
    55   27   91 1    
    56   28   29 2    
    57   28   30 1    
    58   30   31 1    
    59   30   32 1    
    60   30   92 1    
    61   31   93 1    
    62   31   94 1    
    63   31   95 1    
    64   32   33 am   BACKBONE|DICT|INTERRES
    65   32   96 1    
    66   33   34 2    
    67   33   35 1    
    68   35   36 1    
    69   35   37 1    
    70   35   97 1    
    71   36   98 1    
    72   36   99 1    
    73   36  100 1    
    74   37   38 am   BACKBONE|DICT|INTERRES
    75   37  101 1    
    76   38   39 2    
    77   38   40 1    
    78   40   41 1    
    79   40   42 1    
    80   40  102 1    
    81   41  103 1    
    82   41  104 1    
    83   41  105 1    
    84   42   43 am   BACKBONE|DICT|INTERRES
    85   42  106 1    
    86   43   44 2    
    87   43   45 1    
    88   45   46 1    
    89   45   49 1    
    90   45  107 1    
    91   46   47 1    
    92   46  108 1    
    93   46  109 1    
    94   47   48 1    
    95   48  110 1    
    96   48  111 1    
    97   49   50 am   BACKBONE|DICT|INTERRES
    98   49  112 1    
    99   50   51 2    
   100   50   52 1    
   101   52   53 1    
   102   52   54 1    
   103   52  113 1    
   104   53  114 1    
   105   53  115 1    
   106   53  116 1    
   107   54   55 am   BACKBONE|DICT|INTERRES
   108   54  117 1    
   109   55   56 2    
   110   55   57 1    
   111   57   58 1    
   112   57   59 1    
   113   57  118 1    
   114   58  119 1    
   115   58  120 1    
   116   58  121 1    
   117   59   60 am   BACKBONE|DICT|INTERRES
   118   59  122 1    
   119   60   61 2    
   120   60   62 1    
   121   62   63 1    
   122   62   64 1    
   123   62  123 1    
   124   63  124 1    
   125   63  125 1    
   126   63  126 1    
   127   64   65 am   BACKBONE|DICT|INTERRES
   128   64  127 1    
   129   65   66 2    
@<TRIPOS>SUBSTRUCTURE
     1 UNK         1 GROUP             0       ****    0 ROOT    
