@<TRIPOS>MOLECULE
3R134
127   129    1
SMALL
USER_CHARGES


@<TRIPOS>ATOM
      1 CA         36.8720  -44.0568  -51.7221 C.3       0 UNK        -0.1968 
      2 C          36.3393  -44.8780  -52.8870 C.2       0 UNK         0.4852 
      3 O          37.1028  -45.6119  -53.5161 O.2       0 UNK        -0.5359 
      4 N          35.0363  -44.7580  -53.1775 N.am      1 UNK        -0.4300 
      5 CA         34.3487  -45.4706  -54.2636 C.3       1 UNK         0.0863 
      6 C6         32.9878  -44.8199  -54.6097 C.3       11 UNK        -0.0953 
      7 S7         33.1545  -43.0976  -55.1905 S.3       11 UNK        -0.2369 
      8 C8         32.2837  -42.1594  -53.8914 C.3       11 UNK         0.0226 
      9 C9         30.7914  -42.4615  -53.8769 C.ar      11 UNK        -0.0699 
     10 C10        30.2351  -43.2348  -52.8532 C.ar      11 UNK        -0.0804 
     11 C11        28.8732  -43.5663  -52.8645 C.ar      11 UNK        -0.0871 
     12 C12        28.0661  -43.0722  -53.8931 C.ar      11 UNK        -0.1008 
     13 C13        28.6044  -42.2757  -54.9064 C.ar      11 UNK        -0.0735 
     14 C14        29.9682  -41.9734  -54.8945 C.ar      11 UNK        -0.0945 
     15 C15        27.7097  -41.7570  -56.0205 C.3       11 UNK         0.0169 
     16 S16        27.3729  -43.0503  -57.2532 S.3       11 UNK        -0.2669 
     17 C17        29.0340  -43.2819  -57.9740 C.3       11 UNK        -0.0850 
     18 CA         28.9809  -44.0655  -59.3071 C.3       10 UNK         0.0855 
     19 C          30.3758  -44.0889  -59.9899 C.2       10 UNK         0.5543 
     20 N          30.6936  -43.0715  -60.7784 N.am      10 UNK        -0.7343 
     21 O          31.1831  -44.9917  -59.7811 O.2       10 UNK        -0.5027 
     22 N          28.4185  -45.4065  -59.1025 N.am      10 UNK        -0.4495 
     23 C          28.0277  -46.2378  -60.0753 C.2       10 UNK         0.4903 
     24 O          28.0653  -45.9596  -61.2744 O.2       10 UNK        -0.4860 
     25 CA         27.4927  -47.6131  -59.6449 C.3       9 UNK         0.0227 
     26 CB         28.5617  -48.6960  -59.8634 C.3       9 UNK        -0.1964 
     27 N          27.0612  -47.6412  -58.2456 N.am      9 UNK        -0.4231 
     28 C          25.8541  -47.2688  -57.7997 C.2       9 UNK         0.5014 
     29 O          24.9618  -46.8216  -58.5233 O.2       9 UNK        -0.5270 
     30 CA         25.6119  -47.4696  -56.2883 C.3       8 UNK         0.0284 
     31 CB         24.1400  -47.2677  -55.8720 C.3       8 UNK        -0.1977 
     32 N          26.1203  -48.7671  -55.8185 N.am      8 UNK        -0.4342 
     33 C          25.7727  -49.9873  -56.2605 C.2       8 UNK         0.5039 
     34 O          24.8582  -50.1967  -57.0586 O.2       8 UNK        -0.5547 
     35 CA         26.6090  -51.1847  -55.7730 C.3       7 UNK         0.0281 
     36 CB         27.5218  -51.6823  -56.9068 C.3       7 UNK        -0.1963 
     37 N          27.4320  -50.8885  -54.5976 N.am      7 UNK        -0.4444 
     38 C          26.9651  -50.8344  -53.3432 C.2       7 UNK         0.5104 
     39 O          25.7946  -51.0616  -53.0359 O.2       7 UNK        -0.5100 
     40 CA         27.9691  -50.4307  -52.2494 C.3       6 UNK         0.0396 
     41 CB         28.8582  -51.6213  -51.8572 C.3       6 UNK        -0.1801 
     42 N          28.8133  -49.2933  -52.6253 N.am      6 UNK        -0.4747 
     43 C          28.3667  -48.0620  -52.9213 C.2       6 UNK         0.5012 
     44 O          27.1780  -47.7456  -52.9502 O.2       6 UNK        -0.5003 
     45 CA         29.4389  -47.0259  -53.2974 C.3       5 UNK         0.0782 
     46 C46        30.2278  -46.5560  -52.0444 C.3       11 UNK        -0.0868 
     47 S47        29.3570  -45.5024  -50.8265 S.3       11 UNK        -0.2515 
     48 C48        28.2223  -44.4442  -51.7938 C.3       11 UNK         0.0199 
     49 N          30.3212  -47.5929  -54.3227 N.am      5 UNK        -0.4607 
     50 C          29.9711  -47.7659  -55.6070 C.2       4 UNK         0.5031 
     51 O          28.9258  -47.3363  -56.0935 O.2       4 UNK        -0.5119 
     52 CA         30.9039  -48.5943  -56.5063 C.3       4 UNK         0.0263 
     53 CB         31.7285  -47.6921  -57.4356 C.3       4 UNK        -0.1967 
     54 N          31.7877  -49.4891  -55.7573 N.am      4 UNK        -0.4237 
     55 C          31.3700  -50.6219  -55.1721 C.2       3 UNK         0.4908 
     56 O          30.2107  -51.0295  -55.2311 O.2       3 UNK        -0.5102 
     57 CA         32.3932  -51.4051  -54.3314 C.3       3 UNK         0.0241 
     58 CB         33.1550  -52.4097  -55.2096 C.3       3 UNK        -0.1971 
     59 N          33.3481  -50.5498  -53.6214 N.am      3 UNK        -0.4139 
     60 C          33.0155  -49.5942  -52.7426 C.2       2 UNK         0.5016 
     61 O          31.8526  -49.3473  -52.4209 O.2       2 UNK        -0.5319 
     62 CA         34.1538  -48.7365  -52.1580 C.3       2 UNK         0.0286 
     63 CB         35.5564  -49.3641  -52.3244 C.3       2 UNK        -0.1963 
     64 N          34.1568  -47.3637  -52.6848 N.am      2 UNK        -0.4790 
     65 C          34.1841  -46.9809  -53.9739 C.2       1 UNK         0.5024 
     66 O          34.1035  -47.7649  -54.9210 O.2       1 UNK        -0.4888 
     67 H67        37.6621  -43.3891  -52.0647 H         1 UNK         0.0892 
     68 H68        36.0936  -43.4504  -51.2591 H         1 UNK         0.0892 
     69 H69        37.2883  -44.7142  -50.9592 H         1 UNK         0.0892 
     70 H70        34.4669  -44.1202  -52.6410 H         1 UNK         0.3107 
     71 H71        34.9809  -45.4002  -55.1517 H         1 UNK         0.0773 
     72 H72        32.3277  -44.8484  -53.7471 H         1 UNK         0.0680 
     73 H73        32.4773  -45.3750  -55.3969 H         1 UNK         0.0680 
     74 H74        32.7367  -42.3744  -52.9226 H         1 UNK         0.0650 
     75 H75        32.4325  -41.0934  -54.0686 H         1 UNK         0.0650 
     76 H76        30.8755  -43.5889  -52.0586 H         1 UNK         0.1397 
     77 H77        27.0118  -43.3140  -53.9139 H         1 UNK         0.1363 
     78 H78        30.3956  -41.3718  -55.6851 H         1 UNK         0.1355 
     79 H79        28.1573  -40.8902  -56.5093 H         1 UNK         0.0707 
     80 H80        26.7633  -41.4149  -55.5990 H         1 UNK         0.0707 
     81 H81        29.4811  -42.2980  -58.1290 H         1 UNK         0.1034 
     82 H82        29.6682  -43.7975  -57.2492 H         1 UNK         0.1034 
     83 H83        28.3000  -43.5375  -59.9784 H         1 UNK         0.0482 
     84 H84        30.0427  -42.3216  -60.9530 H         1 UNK         0.3460 
     85 H85        31.5999  -43.0599  -61.2196 H         1 UNK         0.3460 
     86 H86        28.3571  -45.7202  -58.1450 H         1 UNK         0.2989 
     87 H87        26.6372  -47.8502  -60.2810 H         1 UNK         0.0559 
     88 H88        29.4685  -48.4901  -59.2955 H         1 UNK         0.0848 
     89 H89        28.8465  -48.7527  -60.9149 H         1 UNK         0.0848 
     90 H90        28.1964  -49.6817  -59.5747 H         1 UNK         0.0848 
     91 H91        27.7553  -47.8928  -57.5482 H         1 UNK         0.3144 
     92 H92        26.2040  -46.7066  -55.7801 H         1 UNK         0.0727 
     93 H93        23.7999  -46.2615  -56.1200 H         1 UNK         0.0790 
     94 H94        24.0127  -47.3973  -54.7973 H         1 UNK         0.0790 
     95 H95        23.4753  -47.9694  -56.3767 H         1 UNK         0.0790 
     96 H96        26.8698  -48.7128  -55.1418 H         1 UNK         0.3215 
     97 H97        25.9134  -51.9876  -55.5189 H         1 UNK         0.0863 
     98 H98        28.0884  -52.5627  -56.6030 H         1 UNK         0.0808 
     99 H99        28.2345  -50.9166  -57.2155 H         1 UNK         0.0808 
    100 H100       26.9396  -51.9593  -57.7867 H         1 UNK         0.0808 
    101 H101       28.4312  -50.7682  -54.7570 H         1 UNK         0.3118 
    102 H102       27.3963  -50.1324  -51.3689 H         1 UNK         0.0546 
    103 H103       29.4690  -51.9635  -52.6930 H         1 UNK         0.0828 
    104 H104       28.2534  -52.4674  -51.5283 H         1 UNK         0.0828 
    105 H105       29.5284  -51.3637  -51.0369 H         1 UNK         0.0828 
    106 H106       29.8173  -49.4485  -52.6209 H         1 UNK         0.3005 
    107 H107       28.9369  -46.1703  -53.7510 H         1 UNK         0.1257 
    108 H108       31.1128  -46.0073  -52.3558 H         1 UNK         0.0775 
    109 H109       30.6148  -47.4082  -51.4866 H         1 UNK         0.0775 
    110 H110       27.4526  -45.0744  -52.2416 H         1 UNK         0.0840 
    111 H111       27.7000  -43.7893  -51.0952 H         1 UNK         0.0840 
    112 H112       31.1612  -48.0430  -53.9824 H         1 UNK         0.2987 
    113 H113       30.2608  -49.2120  -57.1363 H         1 UNK         0.0785 
    114 H114       32.4637  -47.1024  -56.8917 H         1 UNK         0.0798 
    115 H115       31.0861  -46.9941  -57.9739 H         1 UNK         0.0798 
    116 H116       32.2622  -48.2794  -58.1827 H         1 UNK         0.0798 
    117 H117       32.7428  -49.1764  -55.6132 H         1 UNK         0.3079 
    118 H118       31.8350  -51.9646  -53.5782 H         1 UNK         0.0794 
    119 H119       32.4639  -53.0719  -55.7334 H         1 UNK         0.0786 
    120 H120       33.8139  -53.0402  -54.6122 H         1 UNK         0.0786 
    121 H121       33.7619  -51.9085  -55.9648 H         1 UNK         0.0786 
    122 H122       34.3244  -50.6660  -53.8511 H         1 UNK         0.3032 
    123 H123       33.9498  -48.6639  -51.0882 H         1 UNK         0.1094 
    124 H124       36.3061  -48.7829  -51.7869 H         1 UNK         0.0794 
    125 H125       35.5898  -50.3762  -51.9182 H         1 UNK         0.0794 
    126 H126       35.8708  -49.4096  -53.3678 H         1 UNK         0.0794 
    127 H127       34.1995  -46.6345  -51.9871 H         1 UNK         0.3016 
@<TRIPOS>BOND
     1    1    2 1    
     2    1   67 1    
     3    1   68 1    
     4    1   69 1    
     5    2    3 2    
     6    2    4 am   BACKBONE|DICT|INTERRES
     7    4    5 1    
     8    4   70 1    
     9    5    6 1    
    10    5   65 1    
    11    5   71 1    
    12    6    7 1    
    13    6   72 1    
    14    6   73 1    
    15    7    8 1    
    16    8    9 1    
    17    8   74 1    
    18    8   75 1    
    19    9   10 ar   
    20    9   14 ar   
    21   10   11 ar   
    22   10   76 1    
    23   11   12 ar   
    24   11   48 1    
    25   12   13 ar   
    26   12   77 1    
    27   13   14 ar   
    28   13   15 1    
    29   14   78 1    
    30   15   16 1    
    31   15   79 1    
    32   15   80 1    
    33   16   17 1    
    34   17   18 1    
    35   17   81 1    
    36   17   82 1    
    37   18   19 1    
    38   18   22 1    
    39   18   83 1    
    40   19   20 am   BACKBONE|DICT|INTERRES
    41   19   21 2    
    42   20   84 1    
    43   20   85 1    
    44   22   23 am   BACKBONE|DICT|INTERRES
    45   22   86 1    
    46   23   24 2    
    47   23   25 1    
    48   25   26 1    
    49   25   27 1    
    50   25   87 1    
    51   26   88 1    
    52   26   89 1    
    53   26   90 1    
    54   27   28 am   BACKBONE|DICT|INTERRES
    55   27   91 1    
    56   28   29 2    
    57   28   30 1    
    58   30   31 1    
    59   30   32 1    
    60   30   92 1    
    61   31   93 1    
    62   31   94 1    
    63   31   95 1    
    64   32   33 am   BACKBONE|DICT|INTERRES
    65   32   96 1    
    66   33   34 2    
    67   33   35 1    
    68   35   36 1    
    69   35   37 1    
    70   35   97 1    
    71   36   98 1    
    72   36   99 1    
    73   36  100 1    
    74   37   38 am   BACKBONE|DICT|INTERRES
    75   37  101 1    
    76   38   39 2    
    77   38   40 1    
    78   40   41 1    
    79   40   42 1    
    80   40  102 1    
    81   41  103 1    
    82   41  104 1    
    83   41  105 1    
    84   42   43 am   BACKBONE|DICT|INTERRES
    85   42  106 1    
    86   43   44 2    
    87   43   45 1    
    88   45   46 1    
    89   45   49 1    
    90   45  107 1    
    91   46   47 1    
    92   46  108 1    
    93   46  109 1    
    94   47   48 1    
    95   48  110 1    
    96   48  111 1    
    97   49   50 am   BACKBONE|DICT|INTERRES
    98   49  112 1    
    99   50   51 2    
   100   50   52 1    
   101   52   53 1    
   102   52   54 1    
   103   52  113 1    
   104   53  114 1    
   105   53  115 1    
   106   53  116 1    
   107   54   55 am   BACKBONE|DICT|INTERRES
   108   54  117 1    
   109   55   56 2    
   110   55   57 1    
   111   57   58 1    
   112   57   59 1    
   113   57  118 1    
   114   58  119 1    
   115   58  120 1    
   116   58  121 1    
   117   59   60 am   BACKBONE|DICT|INTERRES
   118   59  122 1    
   119   60   61 2    
   120   60   62 1    
   121   62   63 1    
   122   62   64 1    
   123   62  123 1    
   124   63  124 1    
   125   63  125 1    
   126   63  126 1    
   127   64   65 am   BACKBONE|DICT|INTERRES
   128   64  127 1    
   129   65   66 2    
@<TRIPOS>SUBSTRUCTURE
     1 UNK         1 GROUP             0       ****    0 ROOT    
