@<TRIPOS>MOLECULE
3R134
127   129    1
SMALL
USER_CHARGES


@<TRIPOS>ATOM
      1 CA         36.5076  -46.4120  -55.8765 C.3       0 UNK        -0.1968 
      2 C          36.0893  -45.7457  -54.5740 C.2       0 UNK         0.4852 
      3 O          36.9085  -45.6246  -53.6626 O.2       0 UNK        -0.5359 
      4 N          34.8210  -45.3195  -54.4853 N.am      1 UNK        -0.4300 
      5 CA         34.2024  -44.6663  -53.3227 C.3       1 UNK         0.0863 
      6 C6         34.8125  -43.2636  -53.0369 C.3       11 UNK        -0.0953 
      7 S7         33.6584  -42.0923  -52.2424 S.3       11 UNK        -0.2369 
      8 C8         32.7853  -41.3690  -53.6703 C.3       11 UNK         0.0226 
      9 C9         31.7441  -42.3294  -54.2246 C.ar      11 UNK        -0.0699 
     10 C10        31.9688  -43.0066  -55.4279 C.ar      11 UNK        -0.0804 
     11 C11        31.0442  -43.9469  -55.8929 C.ar      11 UNK        -0.0871 
     12 C12        29.8710  -44.1747  -55.1683 C.ar      11 UNK        -0.1008 
     13 C13        29.6262  -43.4881  -53.9766 C.ar      11 UNK        -0.0735 
     14 C14        30.5670  -42.5680  -53.5084 C.ar      11 UNK        -0.0945 
     15 C15        28.3560  -43.7598  -53.1844 C.3       11 UNK         0.0169 
     16 S16        27.1055  -42.4486  -53.3890 S.3       11 UNK        -0.2669 
     17 C17        26.7730  -42.4894  -55.1848 C.3       11 UNK        -0.0850 
     18 CA         25.8959  -43.6928  -55.6309 C.3       10 UNK         0.0855 
     19 C          24.3723  -43.4010  -55.4767 C.2       10 UNK         0.5543 
     20 N          23.5990  -43.3328  -56.5540 N.am      10 UNK        -0.7343 
     21 O          23.8803  -43.2447  -54.3625 O.2       10 UNK        -0.5027 
     22 N          26.3020  -44.1643  -56.9661 N.am      10 UNK        -0.4495 
     23 C          26.0711  -45.3937  -57.4434 C.2       10 UNK         0.4903 
     24 O          25.4945  -46.2735  -56.8041 O.2       10 UNK        -0.4860 
     25 CA         26.5450  -45.6972  -58.8741 C.3       9 UNK         0.0227 
     26 CB         27.5793  -44.6956  -59.4322 C.3       9 UNK        -0.1964 
     27 N          27.0991  -47.0474  -58.9042 N.am      9 UNK        -0.4231 
     28 C          27.0043  -47.9077  -59.9234 C.2       9 UNK         0.5014 
     29 O          26.4476  -47.6495  -60.9921 O.2       9 UNK        -0.5270 
     30 CA         27.6473  -49.2919  -59.7291 C.3       8 UNK         0.0284 
     31 CB         29.1475  -49.2358  -60.0620 C.3       8 UNK        -0.1977 
     32 N          27.4736  -49.8369  -58.3808 N.am      8 UNK        -0.4342 
     33 C          26.3067  -50.2334  -57.8511 C.2       8 UNK         0.5039 
     34 O          25.2318  -50.1940  -58.4507 O.2       8 UNK        -0.5547 
     35 CA         26.3445  -50.7655  -56.4096 C.3       7 UNK         0.0281 
     36 CB         26.8620  -52.2135  -56.3678 C.3       7 UNK        -0.1963 
     37 N          27.1855  -49.9113  -55.5708 N.am      7 UNK        -0.4444 
     38 C          26.7277  -48.8913  -54.8316 C.2       7 UNK         0.5104 
     39 O          25.5312  -48.6768  -54.6359 O.2       7 UNK        -0.5100 
     40 CA         27.7658  -47.9490  -54.1888 C.3       6 UNK         0.0396 
     41 CB         27.7526  -48.0775  -52.6572 C.3       6 UNK        -0.1801 
     42 N          29.1337  -48.1583  -54.6705 N.am      6 UNK        -0.4747 
     43 C          29.5916  -47.7578  -55.8658 C.2       6 UNK         0.5012 
     44 O          28.8984  -47.1782  -56.6995 O.2       6 UNK        -0.5003 
     45 CA         31.0467  -48.1364  -56.2136 C.3       5 UNK         0.0782 
     46 C46        32.0482  -47.0689  -55.6941 C.3       11 UNK        -0.0868 
     47 S47        32.6493  -45.9441  -57.0005 S.3       11 UNK        -0.2515 
     48 C48        31.3104  -44.7179  -57.1772 C.3       11 UNK         0.0199 
     49 N          31.3776  -49.4945  -55.7569 N.am      5 UNK        -0.4607 
     50 C          30.7371  -50.5955  -56.1808 C.2       4 UNK         0.5031 
     51 O          29.8354  -50.5655  -57.0182 O.2       4 UNK        -0.5119 
     52 CA         31.1065  -51.9505  -55.5560 C.3       4 UNK         0.0263 
     53 CB         32.0336  -52.7336  -56.4983 C.3       4 UNK        -0.1967 
     54 N          31.7203  -51.8727  -54.2293 N.am      4 UNK        -0.4237 
     55 C          31.1686  -51.3384  -53.1303 C.2       3 UNK         0.4908 
     56 O          30.0642  -50.7927  -53.1097 O.2       3 UNK        -0.5102 
     57 CA         32.0023  -51.4005  -51.8347 C.3       3 UNK         0.0241 
     58 CB         33.1830  -52.3974  -51.8968 C.3       3 UNK        -0.1971 
     59 N          32.4921  -50.0855  -51.4032 N.am      3 UNK        -0.4139 
     60 C          33.1465  -49.1788  -52.1433 C.2       2 UNK         0.5016 
     61 O          33.3549  -49.2803  -53.3578 O.2       2 UNK        -0.5319 
     62 CA         33.6933  -47.9626  -51.3874 C.3       2 UNK         0.0286 
     63 CB         35.0074  -48.3169  -50.6644 C.3       2 UNK        -0.1963 
     64 N          33.9228  -46.8991  -52.3568 N.am      2 UNK        -0.4790 
     65 C          34.0914  -45.5982  -52.0927 C.2       1 UNK         0.5024 
     66 O          34.1284  -45.1412  -50.9492 O.2       1 UNK        -0.4888 
     67 H67        35.6993  -46.4285  -56.6072 H         1 UNK         0.0892 
     68 H68        37.3498  -45.8790  -56.3167 H         1 UNK         0.0892 
     69 H69        36.8150  -47.4404  -55.6889 H         1 UNK         0.0892 
     70 H70        34.2088  -45.4435  -55.2824 H         1 UNK         0.3107 
     71 H71        33.1656  -44.5274  -53.6183 H         1 UNK         0.0773 
     72 H72        35.1516  -42.8055  -53.9672 H         1 UNK         0.0680 
     73 H73        35.7052  -43.3525  -52.4155 H         1 UNK         0.0680 
     74 H74        33.5041  -41.0782  -54.4377 H         1 UNK         0.0650 
     75 H75        32.2903  -40.4509  -53.3507 H         1 UNK         0.0650 
     76 H76        32.8799  -42.8314  -55.9838 H         1 UNK         0.1397 
     77 H77        29.1415  -44.8852  -55.5301 H         1 UNK         0.1363 
     78 H78        30.3899  -42.0469  -52.5773 H         1 UNK         0.1355 
     79 H79        28.6041  -43.8429  -52.1253 H         1 UNK         0.0707 
     80 H80        27.9258  -44.7214  -53.4657 H         1 UNK         0.0707 
     81 H81        26.3123  -41.5429  -55.4746 H         1 UNK         0.1034 
     82 H82        27.7340  -42.4945  -55.6992 H         1 UNK         0.1034 
     83 H83        26.0986  -44.5221  -54.9510 H         1 UNK         0.0482 
     84 H84        22.6139  -43.1499  -56.4444 H         1 UNK         0.3460 
     85 H85        23.9889  -43.4666  -57.4728 H         1 UNK         0.3460 
     86 H86        26.7582  -43.4902  -57.5625 H         1 UNK         0.2989 
     87 H87        25.6537  -45.6611  -59.5036 H         1 UNK         0.0559 
     88 H88        27.1577  -43.6945  -59.5275 H         1 UNK         0.0848 
     89 H89        27.9123  -44.9896  -60.4278 H         1 UNK         0.0848 
     90 H90        28.4627  -44.6311  -58.7967 H         1 UNK         0.0848 
     91 H91        27.5829  -47.3308  -58.0541 H         1 UNK         0.3144 
     92 H92        27.1689  -49.9802  -60.4291 H         1 UNK         0.0727 
     93 H93        29.6057  -50.2230  -59.9982 H         1 UNK         0.0790 
     94 H94        29.6859  -48.5729  -59.3835 H         1 UNK         0.0790 
     95 H95        29.3093  -48.8674  -61.0759 H         1 UNK         0.0790 
     96 H96        28.3259  -49.9822  -57.8427 H         1 UNK         0.3215 
     97 H97        25.3211  -50.7689  -56.0274 H         1 UNK         0.0863 
     98 H98        26.8842  -52.5961  -55.3474 H         1 UNK         0.0808 
     99 H99        27.8659  -52.3062  -56.7818 H         1 UNK         0.0808 
    100 H100       26.2127  -52.8718  -56.9464 H         1 UNK         0.0808 
    101 H101       28.1861  -50.0144  -55.6735 H         1 UNK         0.3118 
    102 H102       27.4669  -46.9303  -54.4447 H         1 UNK         0.0546 
    103 H103       28.0363  -49.0800  -52.3347 H         1 UNK         0.0828 
    104 H104       26.7583  -47.8758  -52.2565 H         1 UNK         0.0828 
    105 H105       28.4370  -47.3676  -52.1928 H         1 UNK         0.0828 
    106 H106       29.7397  -48.7111  -54.0757 H         1 UNK         0.3005 
    107 H107       31.1038  -48.1686  -57.3041 H         1 UNK         0.1257 
    108 H108       32.9423  -47.5607  -55.3111 H         1 UNK         0.0775 
    109 H109       31.6594  -46.4962  -54.8495 H         1 UNK         0.0775 
    110 H110       31.5833  -44.0138  -57.9646 H         1 UNK         0.0840 
    111 H111       30.4089  -45.2197  -57.5268 H         1 UNK         0.0840 
    112 H112       32.0948  -49.5820  -55.0440 H         1 UNK         0.2987 
    113 H113       30.1768  -52.5129  -55.4475 H         1 UNK         0.0785 
    114 H114       31.5889  -52.8338  -57.4898 H         1 UNK         0.0798 
    115 H115       32.2195  -53.7416  -56.1271 H         1 UNK         0.0798 
    116 H116       32.9966  -52.2364  -56.6221 H         1 UNK         0.0798 
    117 H117       32.6498  -52.2572  -54.1429 H         1 UNK         0.3079 
    118 H118       31.3195  -51.7487  -51.0581 H         1 UNK         0.0794 
    119 H119       33.6571  -52.4972  -50.9202 H         1 UNK         0.0786 
    120 H120       33.9549  -52.0818  -52.6001 H         1 UNK         0.0786 
    121 H121       32.8482  -53.3945  -52.1872 H         1 UNK         0.0786 
    122 H122       32.3455  -49.8773  -50.4252 H         1 UNK         0.3032 
    123 H123       32.9456  -47.6295  -50.6638 H         1 UNK         0.1094 
    124 H124       35.7788  -48.6320  -51.3685 H         1 UNK         0.0794 
    125 H125       35.3970  -47.4686  -50.1018 H         1 UNK         0.0794 
    126 H126       34.8606  -49.1315  -49.9542 H         1 UNK         0.0794 
    127 H127       33.9055  -47.2201  -53.3167 H         1 UNK         0.3016 
@<TRIPOS>BOND
     1    1    2 1    
     2    1   67 1    
     3    1   68 1    
     4    1   69 1    
     5    2    3 2    
     6    2    4 am   BACKBONE|DICT|INTERRES
     7    4    5 1    
     8    4   70 1    
     9    5    6 1    
    10    5   65 1    
    11    5   71 1    
    12    6    7 1    
    13    6   72 1    
    14    6   73 1    
    15    7    8 1    
    16    8    9 1    
    17    8   74 1    
    18    8   75 1    
    19    9   10 ar   
    20    9   14 ar   
    21   10   11 ar   
    22   10   76 1    
    23   11   12 ar   
    24   11   48 1    
    25   12   13 ar   
    26   12   77 1    
    27   13   14 ar   
    28   13   15 1    
    29   14   78 1    
    30   15   16 1    
    31   15   79 1    
    32   15   80 1    
    33   16   17 1    
    34   17   18 1    
    35   17   81 1    
    36   17   82 1    
    37   18   19 1    
    38   18   22 1    
    39   18   83 1    
    40   19   20 am   BACKBONE|DICT|INTERRES
    41   19   21 2    
    42   20   84 1    
    43   20   85 1    
    44   22   23 am   BACKBONE|DICT|INTERRES
    45   22   86 1    
    46   23   24 2    
    47   23   25 1    
    48   25   26 1    
    49   25   27 1    
    50   25   87 1    
    51   26   88 1    
    52   26   89 1    
    53   26   90 1    
    54   27   28 am   BACKBONE|DICT|INTERRES
    55   27   91 1    
    56   28   29 2    
    57   28   30 1    
    58   30   31 1    
    59   30   32 1    
    60   30   92 1    
    61   31   93 1    
    62   31   94 1    
    63   31   95 1    
    64   32   33 am   BACKBONE|DICT|INTERRES
    65   32   96 1    
    66   33   34 2    
    67   33   35 1    
    68   35   36 1    
    69   35   37 1    
    70   35   97 1    
    71   36   98 1    
    72   36   99 1    
    73   36  100 1    
    74   37   38 am   BACKBONE|DICT|INTERRES
    75   37  101 1    
    76   38   39 2    
    77   38   40 1    
    78   40   41 1    
    79   40   42 1    
    80   40  102 1    
    81   41  103 1    
    82   41  104 1    
    83   41  105 1    
    84   42   43 am   BACKBONE|DICT|INTERRES
    85   42  106 1    
    86   43   44 2    
    87   43   45 1    
    88   45   46 1    
    89   45   49 1    
    90   45  107 1    
    91   46   47 1    
    92   46  108 1    
    93   46  109 1    
    94   47   48 1    
    95   48  110 1    
    96   48  111 1    
    97   49   50 am   BACKBONE|DICT|INTERRES
    98   49  112 1    
    99   50   51 2    
   100   50   52 1    
   101   52   53 1    
   102   52   54 1    
   103   52  113 1    
   104   53  114 1    
   105   53  115 1    
   106   53  116 1    
   107   54   55 am   BACKBONE|DICT|INTERRES
   108   54  117 1    
   109   55   56 2    
   110   55   57 1    
   111   57   58 1    
   112   57   59 1    
   113   57  118 1    
   114   58  119 1    
   115   58  120 1    
   116   58  121 1    
   117   59   60 am   BACKBONE|DICT|INTERRES
   118   59  122 1    
   119   60   61 2    
   120   60   62 1    
   121   62   63 1    
   122   62   64 1    
   123   62  123 1    
   124   63  124 1    
   125   63  125 1    
   126   63  126 1    
   127   64   65 am   BACKBONE|DICT|INTERRES
   128   64  127 1    
   129   65   66 2    
@<TRIPOS>SUBSTRUCTURE
     1 UNK         1 GROUP             0       ****    0 ROOT    
