@<TRIPOS>MOLECULE
3R134
127   129    1
SMALL
USER_CHARGES


@<TRIPOS>ATOM
      1 CA         38.6683  -43.1006  -49.7845 C.3       0 UNK        -0.1968 
      2 C          38.2793  -43.5453  -51.1870 C.2       0 UNK         0.4852 
      3 O          39.1396  -43.9970  -51.9454 O.2       0 UNK        -0.5359 
      4 N          36.9942  -43.4123  -51.5382 N.am      1 UNK        -0.4300 
      5 CA         36.4204  -43.8526  -52.8131 C.3       1 UNK         0.0863 
      6 C6         35.1408  -43.0514  -53.1663 C.3       11 UNK        -0.0953 
      7 S7         33.7855  -43.1947  -51.9493 S.3       11 UNK        -0.2369 
      8 C8         32.4175  -42.4190  -52.8668 C.3       11 UNK         0.0226 
      9 C9         31.5321  -43.4547  -53.5452 C.ar      11 UNK        -0.0699 
     10 C10        30.3071  -43.8091  -52.9725 C.ar      11 UNK        -0.0804 
     11 C11        29.4779  -44.7462  -53.5944 C.ar      11 UNK        -0.0871 
     12 C12        29.8973  -45.3560  -54.7798 C.ar      11 UNK        -0.1008 
     13 C13        31.1105  -44.9947  -55.3785 C.ar      11 UNK        -0.0735 
     14 C14        31.9191  -44.0401  -54.7545 C.ar      11 UNK        -0.0945 
     15 C15        31.5769  -45.6239  -56.6895 C.3       11 UNK         0.0169 
     16 S16        30.2398  -45.9397  -57.8877 S.3       11 UNK        -0.2669 
     17 C17        29.6342  -44.2527  -58.2506 C.3       11 UNK        -0.0850 
     18 CA         28.2627  -43.9391  -57.5919 C.3       10 UNK         0.0855 
     19 C          27.8043  -42.4859  -57.9070 C.2       10 UNK         0.5543 
     20 N          26.6425  -42.2693  -58.5118 N.am      10 UNK        -0.7343 
     21 O          28.5148  -41.5350  -57.5909 O.2       10 UNK        -0.5027 
     22 N          27.2651  -44.9741  -57.9042 N.am      10 UNK        -0.4495 
     23 C          26.2221  -45.3147  -57.1431 C.2       10 UNK         0.4903 
     24 O          25.9591  -44.7827  -56.0652 O.2       10 UNK        -0.4860 
     25 CA         25.3212  -46.4561  -57.6523 C.3       9 UNK         0.0227 
     26 CB         24.2359  -45.9202  -58.6070 C.3       9 UNK        -0.1964 
     27 N          26.0419  -47.6050  -58.2306 N.am      9 UNK        -0.4231 
     28 C          26.7581  -47.6593  -59.3652 C.2       9 UNK         0.5014 
     29 O          26.9152  -46.6937  -60.1146 O.2       9 UNK        -0.5270 
     30 CA         27.4285  -48.9921  -59.7368 C.3       8 UNK         0.0284 
     31 CB         28.9431  -48.8110  -59.9425 C.3       8 UNK        -0.1977 
     32 N          27.2291  -50.0429  -58.7355 N.am      8 UNK        -0.4342 
     33 C          26.6079  -51.2061  -58.9653 C.2       8 UNK         0.5039 
     34 O          25.9899  -51.4649  -59.9989 O.2       8 UNK        -0.5547 
     35 CA         26.7187  -52.2793  -57.8752 C.3       7 UNK         0.0281 
     36 CB         28.1321  -52.8874  -57.8637 C.3       7 UNK        -0.1963 
     37 N          26.4115  -51.7534  -56.5447 N.am      7 UNK        -0.4444 
     38 C          25.2828  -52.0136  -55.8707 C.2       7 UNK         0.5104 
     39 O          24.3396  -52.6553  -56.3352 O.2       7 UNK        -0.5100 
     40 CA         25.1901  -51.5117  -54.4174 C.3       6 UNK         0.0396 
     41 CB         25.4107  -52.6763  -53.4380 C.3       6 UNK        -0.1801 
     42 N          26.1407  -50.4429  -54.1032 N.am      6 UNK        -0.4747 
     43 C          25.9836  -49.1633  -54.4664 C.2       6 UNK         0.5012 
     44 O          25.0156  -48.7504  -55.1025 O.2       6 UNK        -0.5003 
     45 CA         27.1106  -48.1900  -54.0732 C.3       5 UNK         0.0782 
     46 C46        26.8262  -47.5736  -52.6773 C.3       11 UNK        -0.0868 
     47 S47        28.2070  -46.5913  -51.9948 S.3       11 UNK        -0.2515 
     48 C48        28.1196  -45.0817  -52.9998 C.3       11 UNK         0.0199 
     49 N          28.4472  -48.7878  -54.1551 N.am      5 UNK        -0.4607 
     50 C          29.0322  -49.2878  -55.2489 C.2       4 UNK         0.5031 
     51 O          28.4321  -49.4724  -56.3094 O.2       4 UNK        -0.5119 
     52 CA         30.5346  -49.6233  -55.1410 C.3       4 UNK         0.0263 
     53 CB         31.1933  -49.7910  -56.5231 C.3       4 UNK        -0.1967 
     54 N          31.2870  -48.6162  -54.3821 N.am      4 UNK        -0.4237 
     55 C          31.3346  -48.5097  -53.0467 C.2       3 UNK         0.4908 
     56 O          30.7167  -49.2624  -52.2917 O.2       3 UNK        -0.5102 
     57 CA         32.1797  -47.3546  -52.4694 C.3       3 UNK         0.0241 
     58 CB         32.5192  -47.5495  -50.9773 C.3       3 UNK        -0.1971 
     59 N          33.3974  -47.0624  -53.2377 N.am      3 UNK        -0.4139 
     60 C          34.4020  -47.9082  -53.5191 C.2       2 UNK         0.5016 
     61 O          34.4176  -49.0988  -53.2054 O.2       2 UNK        -0.5319 
     62 CA         35.6037  -47.3270  -54.2872 C.3       2 UNK         0.0286 
     63 CB         35.4255  -47.5466  -55.7989 C.3       2 UNK        -0.1963 
     64 N          35.8557  -45.9028  -54.0334 N.am      2 UNK        -0.4790 
     65 C          36.1925  -45.3811  -52.8437 C.2       1 UNK         0.5024 
     66 O          36.3097  -46.0531  -51.8153 O.2       1 UNK        -0.4888 
     67 H67        39.0782  -43.9411  -49.2252 H         1 UNK         0.0892 
     68 H68        37.8161  -42.7080  -49.2301 H         1 UNK         0.0892 
     69 H69        39.4279  -42.3209  -49.8348 H         1 UNK         0.0892 
     70 H70        36.3242  -43.0695  -50.8644 H         1 UNK         0.3107 
     71 H71        37.1545  -43.6385  -53.5933 H         1 UNK         0.0773 
     72 H72        35.3944  -41.9936  -53.2531 H         1 UNK         0.0680 
     73 H73        34.7755  -43.3390  -54.1513 H         1 UNK         0.0680 
     74 H74        31.8294  -41.8232  -52.1673 H         1 UNK         0.0650 
     75 H75        32.8062  -41.7162  -53.6052 H         1 UNK         0.0650 
     76 H76        29.9930  -43.3469  -52.0465 H         1 UNK         0.1397 
     77 H77        29.2606  -46.0909  -55.2520 H         1 UNK         0.1363 
     78 H78        32.8515  -43.7491  -55.2156 H         1 UNK         0.1355 
     79 H79        32.0716  -46.5687  -56.4671 H         1 UNK         0.0707 
     80 H80        32.3252  -44.9932  -57.1723 H         1 UNK         0.0707 
     81 H81        29.5613  -44.1515  -59.3349 H         1 UNK         0.1034 
     82 H82        30.3850  -43.5272  -57.9314 H         1 UNK         0.1034 
     83 H83        28.4118  -43.9511  -56.5126 H         1 UNK         0.0482 
     84 H84        26.3536  -41.3239  -58.7081 H         1 UNK         0.3460 
     85 H85        26.0551  -43.0444  -58.7730 H         1 UNK         0.3460 
     86 H86        27.3803  -45.4655  -58.7867 H         1 UNK         0.2989 
     87 H87        24.8003  -46.8456  -56.7786 H         1 UNK         0.0559 
     88 H88        24.6599  -45.4798  -59.5096 H         1 UNK         0.0848 
     89 H89        23.6404  -45.1463  -58.1209 H         1 UNK         0.0848 
     90 H90        23.5505  -46.7114  -58.9108 H         1 UNK         0.0848 
     91 H91        25.9956  -48.4527  -57.6823 H         1 UNK         0.3144 
     92 H92        26.9959  -49.2880  -60.6945 H         1 UNK         0.0727 
     93 H93        29.4008  -49.7247  -60.3219 H         1 UNK         0.0790 
     94 H94        29.4436  -48.5526  -59.0095 H         1 UNK         0.0790 
     95 H95        29.1590  -48.0197  -60.6616 H         1 UNK         0.0790 
     96 H96        27.7098  -49.9010  -57.8455 H         1 UNK         0.3215 
     97 H97        26.0223  -53.0799  -58.1353 H         1 UNK         0.0863 
     98 H98        28.1998  -53.7139  -57.1561 H         1 UNK         0.0808 
     99 H99        28.8905  -52.1529  -57.5920 H         1 UNK         0.0808 
    100 H100       28.3961  -53.2812  -58.8463 H         1 UNK         0.0808 
    101 H101       27.1095  -51.1635  -56.1100 H         1 UNK         0.3118 
    102 H102       24.1770  -51.1324  -54.2665 H         1 UNK         0.0546 
    103 H103       24.6950  -53.4796  -53.6186 H         1 UNK         0.0828 
    104 H104       25.2798  -52.3566  -52.4041 H         1 UNK         0.0828 
    105 H105       26.4096  -53.1034  -53.5351 H         1 UNK         0.0828 
    106 H106       26.9699  -50.6985  -53.5852 H         1 UNK         0.3005 
    107 H107       27.0887  -47.3844  -54.8100 H         1 UNK         0.1257 
    108 H108       26.6153  -48.3608  -51.9504 H         1 UNK         0.0775 
    109 H109       25.9315  -46.9486  -52.7104 H         1 UNK         0.0775 
    110 H110       27.3886  -45.1905  -53.8012 H         1 UNK         0.0840 
    111 H111       27.7600  -44.2613  -52.3769 H         1 UNK         0.0840 
    112 H112       29.0122  -48.7157  -53.3157 H         1 UNK         0.2987 
    113 H113       30.6086  -50.5789  -54.6179 H         1 UNK         0.0785 
    114 H114       31.1172  -48.8812  -57.1191 H         1 UNK         0.0798 
    115 H115       30.7196  -50.5916  -57.0918 H         1 UNK         0.0798 
    116 H116       32.2494  -50.0458  -56.4316 H         1 UNK         0.0798 
    117 H117       31.7978  -47.9370  -54.9241 H         1 UNK         0.3079 
    118 H118       31.5552  -46.4643  -52.5419 H         1 UNK         0.0794 
    119 H119       33.1037  -48.4551  -50.8115 H         1 UNK         0.0786 
    120 H120       31.6124  -47.6298  -50.3764 H         1 UNK         0.0786 
    121 H121       33.0899  -46.7055  -50.5892 H         1 UNK         0.0786 
    122 H122       33.5003  -46.1040  -53.5401 H         1 UNK         0.3032 
    123 H123       36.4871  -47.8815  -53.9619 H         1 UNK         0.1094 
    124 H124       36.3194  -47.2541  -56.3503 H         1 UNK         0.0794 
    125 H125       35.2413  -48.5987  -56.0223 H         1 UNK         0.0794 
    126 H126       34.5845  -46.9774  -56.1959 H         1 UNK         0.0794 
    127 H127       35.7990  -45.2883  -54.8331 H         1 UNK         0.3016 
@<TRIPOS>BOND
     1    1    2 1    
     2    1   67 1    
     3    1   68 1    
     4    1   69 1    
     5    2    3 2    
     6    2    4 am   BACKBONE|DICT|INTERRES
     7    4    5 1    
     8    4   70 1    
     9    5    6 1    
    10    5   65 1    
    11    5   71 1    
    12    6    7 1    
    13    6   72 1    
    14    6   73 1    
    15    7    8 1    
    16    8    9 1    
    17    8   74 1    
    18    8   75 1    
    19    9   10 ar   
    20    9   14 ar   
    21   10   11 ar   
    22   10   76 1    
    23   11   12 ar   
    24   11   48 1    
    25   12   13 ar   
    26   12   77 1    
    27   13   14 ar   
    28   13   15 1    
    29   14   78 1    
    30   15   16 1    
    31   15   79 1    
    32   15   80 1    
    33   16   17 1    
    34   17   18 1    
    35   17   81 1    
    36   17   82 1    
    37   18   19 1    
    38   18   22 1    
    39   18   83 1    
    40   19   20 am   BACKBONE|DICT|INTERRES
    41   19   21 2    
    42   20   84 1    
    43   20   85 1    
    44   22   23 am   BACKBONE|DICT|INTERRES
    45   22   86 1    
    46   23   24 2    
    47   23   25 1    
    48   25   26 1    
    49   25   27 1    
    50   25   87 1    
    51   26   88 1    
    52   26   89 1    
    53   26   90 1    
    54   27   28 am   BACKBONE|DICT|INTERRES
    55   27   91 1    
    56   28   29 2    
    57   28   30 1    
    58   30   31 1    
    59   30   32 1    
    60   30   92 1    
    61   31   93 1    
    62   31   94 1    
    63   31   95 1    
    64   32   33 am   BACKBONE|DICT|INTERRES
    65   32   96 1    
    66   33   34 2    
    67   33   35 1    
    68   35   36 1    
    69   35   37 1    
    70   35   97 1    
    71   36   98 1    
    72   36   99 1    
    73   36  100 1    
    74   37   38 am   BACKBONE|DICT|INTERRES
    75   37  101 1    
    76   38   39 2    
    77   38   40 1    
    78   40   41 1    
    79   40   42 1    
    80   40  102 1    
    81   41  103 1    
    82   41  104 1    
    83   41  105 1    
    84   42   43 am   BACKBONE|DICT|INTERRES
    85   42  106 1    
    86   43   44 2    
    87   43   45 1    
    88   45   46 1    
    89   45   49 1    
    90   45  107 1    
    91   46   47 1    
    92   46  108 1    
    93   46  109 1    
    94   47   48 1    
    95   48  110 1    
    96   48  111 1    
    97   49   50 am   BACKBONE|DICT|INTERRES
    98   49  112 1    
    99   50   51 2    
   100   50   52 1    
   101   52   53 1    
   102   52   54 1    
   103   52  113 1    
   104   53  114 1    
   105   53  115 1    
   106   53  116 1    
   107   54   55 am   BACKBONE|DICT|INTERRES
   108   54  117 1    
   109   55   56 2    
   110   55   57 1    
   111   57   58 1    
   112   57   59 1    
   113   57  118 1    
   114   58  119 1    
   115   58  120 1    
   116   58  121 1    
   117   59   60 am   BACKBONE|DICT|INTERRES
   118   59  122 1    
   119   60   61 2    
   120   60   62 1    
   121   62   63 1    
   122   62   64 1    
   123   62  123 1    
   124   63  124 1    
   125   63  125 1    
   126   63  126 1    
   127   64   65 am   BACKBONE|DICT|INTERRES
   128   64  127 1    
   129   65   66 2    
@<TRIPOS>SUBSTRUCTURE
     1 UNK         1 GROUP             0       ****    0 ROOT    
