@<TRIPOS>MOLECULE
3R134
127   129    1
SMALL
USER_CHARGES


@<TRIPOS>ATOM
      1 CA         36.8462  -43.9576  -50.5902 C.3       0 UNK        -0.1968 
      2 C          36.1216  -44.0984  -51.9210 C.2       0 UNK         0.4852 
      3 O          35.6990  -43.0943  -52.4962 O.2       0 UNK        -0.5359 
      4 N          35.9775  -45.3328  -52.4130 N.am      1 UNK        -0.4300 
      5 CA         35.3434  -45.6767  -53.6829 C.3       1 UNK         0.0863 
      6 C6         33.7945  -45.6565  -53.5869 C.3       11 UNK        -0.0953 
      7 S7         32.9965  -45.4743  -55.2190 S.3       11 UNK        -0.2369 
      8 C8         32.1982  -43.8451  -55.0720 C.3       11 UNK         0.0226 
      9 C9         30.7893  -43.9542  -54.5053 C.ar      11 UNK        -0.0699 
     10 C10        30.5735  -43.9778  -53.1232 C.ar      11 UNK        -0.0804 
     11 C11        29.2753  -44.0574  -52.6081 C.ar      11 UNK        -0.0871 
     12 C12        28.1878  -44.0977  -53.4859 C.ar      11 UNK        -0.1008 
     13 C13        28.3917  -44.0865  -54.8675 C.ar      11 UNK        -0.0735 
     14 C14        29.6932  -44.0144  -55.3713 C.ar      11 UNK        -0.0945 
     15 C15        27.2093  -44.1593  -55.8188 C.3       11 UNK         0.0169 
     16 S16        26.8390  -42.5241  -56.5217 S.3       11 UNK        -0.2669 
     17 C17        25.4744  -42.9245  -57.6703 C.3       11 UNK        -0.0850 
     18 CA         25.8084  -42.8838  -59.1936 C.3       10 UNK         0.0855 
     19 C          26.4443  -41.5475  -59.6891 C.2       10 UNK         0.5543 
     20 N          27.3942  -41.5647  -60.6153 N.am      10 UNK        -0.7343 
     21 O          26.0266  -40.4708  -59.2693 O.2       10 UNK        -0.5027 
     22 N          26.3939  -44.1400  -59.7006 N.am      10 UNK        -0.4495 
     23 C          27.6386  -44.6055  -59.5397 C.2       10 UNK         0.4903 
     24 O          28.5504  -44.0091  -58.9663 O.2       10 UNK        -0.4860 
     25 CA         27.9259  -45.9679  -60.1907 C.3       9 UNK         0.0227 
     26 CB         28.6830  -45.7829  -61.5162 C.3       9 UNK        -0.1964 
     27 N          28.7039  -46.8343  -59.3043 N.am      9 UNK        -0.4231 
     28 C          28.2238  -47.4131  -58.1962 C.2       9 UNK         0.5014 
     29 O          27.0594  -47.2918  -57.8062 O.2       9 UNK        -0.5270 
     30 CA         29.2292  -48.2504  -57.3844 C.3       8 UNK         0.0284 
     31 CB         29.9745  -47.3633  -56.3741 C.3       8 UNK        -0.1977 
     32 N          28.5931  -49.3489  -56.6575 N.am      8 UNK        -0.4342 
     33 C          27.9457  -50.3859  -57.2051 C.2       8 UNK         0.5039 
     34 O          27.8546  -50.5769  -58.4190 O.2       8 UNK        -0.5547 
     35 CA         27.3029  -51.3930  -56.2386 C.3       7 UNK         0.0281 
     36 CB         28.3258  -52.4673  -55.8309 C.3       7 UNK        -0.1963 
     37 N          26.7868  -50.7435  -55.0305 N.am      7 UNK        -0.4444 
     38 C          25.5007  -50.4407  -54.8081 C.2       7 UNK         0.5104 
     39 O          24.5967  -50.6688  -55.6130 O.2       7 UNK        -0.5100 
     40 CA         25.1399  -49.8087  -53.4480 C.3       6 UNK         0.0396 
     41 CB         24.5376  -50.8712  -52.5141 C.3       6 UNK        -0.1801 
     42 N          26.2787  -49.1790  -52.7742 N.am      6 UNK        -0.4747 
     43 C          26.7491  -47.9554  -53.0571 C.2       6 UNK         0.5012 
     44 O          26.2196  -47.1946  -53.8666 O.2       6 UNK        -0.5003 
     45 CA         28.0376  -47.5064  -52.3305 C.3       5 UNK         0.0782 
     46 C46        27.6943  -46.5850  -51.1343 C.3       11 UNK        -0.0868 
     47 S47        29.1792  -45.7844  -50.4356 S.3       11 UNK        -0.2515 
     48 C48        29.0474  -44.0935  -51.1034 C.3       11 UNK         0.0199 
     49 N          28.9233  -48.6103  -51.9249 N.am      5 UNK        -0.4607 
     50 C          29.4614  -49.5090  -52.7562 C.2       4 UNK         0.5031 
     51 O          29.1594  -49.5986  -53.9465 O.2       4 UNK        -0.5119 
     52 CA         30.4622  -50.5109  -52.1580 C.3       4 UNK         0.0263 
     53 CB         29.7215  -51.7608  -51.6556 C.3       4 UNK        -0.1967 
     54 N          31.4650  -50.9135  -53.1495 N.am      4 UNK        -0.4237 
     55 C          32.3483  -50.0736  -53.7048 C.2       3 UNK         0.4908 
     56 O          32.4994  -48.9047  -53.3425 O.2       3 UNK        -0.5102 
     57 CA         33.1861  -50.6228  -54.8663 C.3       3 UNK         0.0241 
     58 CB         32.3062  -50.9807  -56.0807 C.3       3 UNK        -0.1971 
     59 N          34.1569  -49.6036  -55.2529 N.am      3 UNK        -0.4139 
     60 C          35.3771  -49.8218  -55.7517 C.2       2 UNK         0.5016 
     61 O          35.8259  -50.9440  -55.9909 O.2       2 UNK        -0.5319 
     62 CA         36.2500  -48.5868  -56.0497 C.3       2 UNK         0.0286 
     63 CB         36.3580  -48.3628  -57.5675 C.3       2 UNK        -0.1963 
     64 N          35.7709  -47.3477  -55.4247 N.am      2 UNK        -0.4790 
     65 C          35.8966  -47.0444  -54.1265 C.2       1 UNK         0.5024 
     66 O          36.4271  -47.7916  -53.2991 O.2       1 UNK        -0.4888 
     67 H67        37.7318  -43.3340  -50.7091 H         1 UNK         0.0892 
     68 H68        36.1933  -43.4866  -49.8558 H         1 UNK         0.0892 
     69 H69        37.1615  -44.9226  -50.1936 H         1 UNK         0.0892 
     70 H70        36.3780  -46.1332  -51.9371 H         1 UNK         0.3107 
     71 H71        35.6699  -44.9390  -54.4198 H         1 UNK         0.0773 
     72 H72        33.4764  -44.8281  -52.9551 H         1 UNK         0.0680 
     73 H73        33.4149  -46.5501  -53.0924 H         1 UNK         0.0680 
     74 H74        32.1615  -43.3914  -56.0635 H         1 UNK         0.0650 
     75 H75        32.8072  -43.1768  -54.4611 H         1 UNK         0.0650 
     76 H76        31.4142  -43.9353  -52.4455 H         1 UNK         0.1397 
     77 H77        27.1804  -44.1497  -53.0968 H         1 UNK         0.1363 
     78 H78        29.8474  -43.9995  -56.4423 H         1 UNK         0.1355 
     79 H79        27.4322  -44.8645  -56.6184 H         1 UNK         0.0707 
     80 H80        26.3267  -44.5456  -55.3062 H         1 UNK         0.0707 
     81 H81        25.0498  -43.8953  -57.4101 H         1 UNK         0.1034 
     82 H82        24.6773  -42.2073  -57.4667 H         1 UNK         0.1034 
     83 H83        24.8372  -42.8722  -59.6899 H         1 UNK         0.0482 
     84 H84        27.7583  -42.4419  -60.9498 H         1 UNK         0.3460 
     85 H85        27.7834  -40.6947  -60.9425 H         1 UNK         0.3460 
     86 H86        25.7522  -44.7103  -60.2329 H         1 UNK         0.2989 
     87 H87        26.9794  -46.4692  -60.4054 H         1 UNK         0.0559 
     88 H88        29.6467  -45.2938  -61.3672 H         1 UNK         0.0848 
     89 H89        28.1100  -45.1670  -62.2107 H         1 UNK         0.0848 
     90 H90        28.8636  -46.7387  -62.0085 H         1 UNK         0.0848 
     91 H91        29.6826  -46.9442  -59.5267 H         1 UNK         0.3144 
     92 H92        29.9557  -48.6882  -58.0719 H         1 UNK         0.0727 
     93 H93        30.7288  -47.9250  -55.8225 H         1 UNK         0.0790 
     94 H94        29.2899  -46.9275  -55.6452 H         1 UNK         0.0790 
     95 H95        30.4867  -46.5405  -56.8741 H         1 UNK         0.0790 
     96 H96        28.6723  -49.3176  -55.6430 H         1 UNK         0.3215 
     97 H97        26.4894  -51.8893  -56.7724 H         1 UNK         0.0863 
     98 H98        29.1643  -52.0398  -55.2804 H         1 UNK         0.0808 
     99 H99        28.7335  -52.9712  -56.7082 H         1 UNK         0.0808 
    100 H100       27.8676  -53.2308  -55.2022 H         1 UNK         0.0808 
    101 H101       27.4807  -50.4457  -54.3527 H         1 UNK         0.3118 
    102 H102       24.3756  -49.0503  -53.6312 H         1 UNK         0.0546 
    103 H103       25.2517  -51.6644  -52.2889 H         1 UNK         0.0828 
    104 H104       23.6638  -51.3402  -52.9687 H         1 UNK         0.0828 
    105 H105       24.2122  -50.4327  -51.5706 H         1 UNK         0.0828 
    106 H106       26.7686  -49.7320  -52.0856 H         1 UNK         0.3005 
    107 H107       28.5966  -46.9186  -53.0625 H         1 UNK         0.1257 
    108 H108       27.2104  -47.1582  -50.3413 H         1 UNK         0.0775 
    109 H109       26.9763  -45.8149  -51.4209 H         1 UNK         0.0775 
    110 H110       28.0731  -43.6724  -50.8503 H         1 UNK         0.0840 
    111 H111       29.7853  -43.4618  -50.6064 H         1 UNK         0.0840 
    112 H112       29.2147  -48.6017  -50.9580 H         1 UNK         0.2987 
    113 H113       30.9792  -50.0382  -51.3202 H         1 UNK         0.0785 
    114 H114       28.9887  -51.5018  -50.8902 H         1 UNK         0.0798 
    115 H115       29.1865  -52.2656  -52.4615 H         1 UNK         0.0798 
    116 H116       30.4109  -52.4782  -51.2097 H         1 UNK         0.0798 
    117 H117       31.3900  -51.8520  -53.5127 H         1 UNK         0.3079 
    118 H118       33.7102  -51.5131  -54.5125 H         1 UNK         0.0794 
    119 H119       31.6054  -51.7811  -55.8431 H         1 UNK         0.0786 
    120 H120       32.9106  -51.3249  -56.9201 H         1 UNK         0.0786 
    121 H121       31.7214  -50.1251  -56.4204 H         1 UNK         0.0786 
    122 H122       33.8881  -48.6592  -55.0049 H         1 UNK         0.3032 
    123 H123       37.2491  -48.8031  -55.6638 H         1 UNK         0.1094 
    124 H124       36.7460  -49.2514  -58.0677 H         1 UNK         0.0794 
    125 H125       35.3879  -48.1366  -58.0122 H         1 UNK         0.0794 
    126 H126       37.0359  -47.5416  -57.8011 H         1 UNK         0.0794 
    127 H127       35.2974  -46.6891  -56.0286 H         1 UNK         0.3016 
@<TRIPOS>BOND
     1    1    2 1    
     2    1   67 1    
     3    1   68 1    
     4    1   69 1    
     5    2    3 2    
     6    2    4 am   BACKBONE|DICT|INTERRES
     7    4    5 1    
     8    4   70 1    
     9    5    6 1    
    10    5   65 1    
    11    5   71 1    
    12    6    7 1    
    13    6   72 1    
    14    6   73 1    
    15    7    8 1    
    16    8    9 1    
    17    8   74 1    
    18    8   75 1    
    19    9   10 ar   
    20    9   14 ar   
    21   10   11 ar   
    22   10   76 1    
    23   11   12 ar   
    24   11   48 1    
    25   12   13 ar   
    26   12   77 1    
    27   13   14 ar   
    28   13   15 1    
    29   14   78 1    
    30   15   16 1    
    31   15   79 1    
    32   15   80 1    
    33   16   17 1    
    34   17   18 1    
    35   17   81 1    
    36   17   82 1    
    37   18   19 1    
    38   18   22 1    
    39   18   83 1    
    40   19   20 am   BACKBONE|DICT|INTERRES
    41   19   21 2    
    42   20   84 1    
    43   20   85 1    
    44   22   23 am   BACKBONE|DICT|INTERRES
    45   22   86 1    
    46   23   24 2    
    47   23   25 1    
    48   25   26 1    
    49   25   27 1    
    50   25   87 1    
    51   26   88 1    
    52   26   89 1    
    53   26   90 1    
    54   27   28 am   BACKBONE|DICT|INTERRES
    55   27   91 1    
    56   28   29 2    
    57   28   30 1    
    58   30   31 1    
    59   30   32 1    
    60   30   92 1    
    61   31   93 1    
    62   31   94 1    
    63   31   95 1    
    64   32   33 am   BACKBONE|DICT|INTERRES
    65   32   96 1    
    66   33   34 2    
    67   33   35 1    
    68   35   36 1    
    69   35   37 1    
    70   35   97 1    
    71   36   98 1    
    72   36   99 1    
    73   36  100 1    
    74   37   38 am   BACKBONE|DICT|INTERRES
    75   37  101 1    
    76   38   39 2    
    77   38   40 1    
    78   40   41 1    
    79   40   42 1    
    80   40  102 1    
    81   41  103 1    
    82   41  104 1    
    83   41  105 1    
    84   42   43 am   BACKBONE|DICT|INTERRES
    85   42  106 1    
    86   43   44 2    
    87   43   45 1    
    88   45   46 1    
    89   45   49 1    
    90   45  107 1    
    91   46   47 1    
    92   46  108 1    
    93   46  109 1    
    94   47   48 1    
    95   48  110 1    
    96   48  111 1    
    97   49   50 am   BACKBONE|DICT|INTERRES
    98   49  112 1    
    99   50   51 2    
   100   50   52 1    
   101   52   53 1    
   102   52   54 1    
   103   52  113 1    
   104   53  114 1    
   105   53  115 1    
   106   53  116 1    
   107   54   55 am   BACKBONE|DICT|INTERRES
   108   54  117 1    
   109   55   56 2    
   110   55   57 1    
   111   57   58 1    
   112   57   59 1    
   113   57  118 1    
   114   58  119 1    
   115   58  120 1    
   116   58  121 1    
   117   59   60 am   BACKBONE|DICT|INTERRES
   118   59  122 1    
   119   60   61 2    
   120   60   62 1    
   121   62   63 1    
   122   62   64 1    
   123   62  123 1    
   124   63  124 1    
   125   63  125 1    
   126   63  126 1    
   127   64   65 am   BACKBONE|DICT|INTERRES
   128   64  127 1    
   129   65   66 2    
@<TRIPOS>SUBSTRUCTURE
     1 UNK         1 GROUP             0       ****    0 ROOT    
