@<TRIPOS>MOLECULE
3R134
127   129    1
SMALL
USER_CHARGES


@<TRIPOS>ATOM
      1 CA         29.6083  -48.0656  -49.0861 C.3       0 UNK        -0.1968 
      2 C          31.1068  -47.8181  -48.9893 C.2       0 UNK         0.4852 
      3 O          31.7439  -48.2817  -48.0418 O.2       0 UNK        -0.5359 
      4 N          31.6696  -47.0828  -49.9562 N.am      1 UNK        -0.4300 
      5 CA         33.1030  -46.8047  -50.0788 C.3       1 UNK         0.0863 
      6 C6         33.3669  -45.5979  -51.0180 C.3       11 UNK        -0.0953 
      7 S7         32.7245  -45.8337  -52.7099 S.3       11 UNK        -0.2369 
      8 C8         32.3839  -44.1191  -53.2179 C.3       11 UNK         0.0226 
      9 C9         31.7486  -44.1002  -54.5988 C.ar      11 UNK        -0.0699 
     10 C10        32.4977  -44.4951  -55.7080 C.ar      11 UNK        -0.0804 
     11 C11        31.9025  -44.6044  -56.9660 C.ar      11 UNK        -0.0871 
     12 C12        30.5565  -44.2650  -57.1236 C.ar      11 UNK        -0.1008 
     13 C13        29.8026  -43.8330  -56.0274 C.ar      11 UNK        -0.0735 
     14 C14        30.4058  -43.7495  -54.7669 C.ar      11 UNK        -0.0945 
     15 C15        28.3148  -43.5506  -56.1780 C.3       11 UNK         0.0169 
     16 S16        27.9700  -42.0377  -57.1293 S.3       11 UNK        -0.2669 
     17 C17        27.5521  -42.7079  -58.7781 C.3       11 UNK        -0.0850 
     18 CA         26.0283  -42.9586  -58.9488 C.3       10 UNK         0.0855 
     19 C          25.6519  -43.2114  -60.4396 C.2       10 UNK         0.5543 
     20 N          24.9968  -44.3103  -60.7973 N.am      10 UNK        -0.7343 
     21 O          25.9535  -42.3818  -61.2941 O.2       10 UNK        -0.5027 
     22 N          25.5565  -44.0066  -58.0309 N.am      10 UNK        -0.4495 
     23 C          24.3259  -44.0938  -57.5142 C.2       10 UNK         0.4903 
     24 O          23.4472  -43.2482  -57.6895 O.2       10 UNK        -0.4860 
     25 CA         24.0370  -45.3484  -56.6611 C.3       9 UNK         0.0227 
     26 CB         22.5284  -45.6500  -56.5398 C.3       9 UNK        -0.1964 
     27 N          24.7679  -46.5472  -57.1023 N.am      9 UNK        -0.4231 
     28 C          24.7187  -47.1221  -58.3175 C.2       9 UNK         0.5014 
     29 O          24.0467  -46.6787  -59.2499 O.2       9 UNK        -0.5270 
     30 CA         25.5869  -48.3697  -58.5705 C.3       8 UNK         0.0284 
     31 CB         26.6467  -48.0761  -59.6471 C.3       8 UNK        -0.1977 
     32 N          26.2503  -48.8670  -57.3622 N.am      8 UNK        -0.4342 
     33 C          25.6667  -49.6626  -56.4521 C.2       8 UNK         0.5039 
     34 O          24.5267  -50.1115  -56.5769 O.2       8 UNK        -0.5547 
     35 CA         26.4639  -50.0092  -55.1777 C.3       7 UNK         0.0281 
     36 CB         27.0509  -51.4258  -55.2839 C.3       7 UNK        -0.1963 
     37 N          27.5422  -49.0675  -54.8621 N.am      7 UNK        -0.4444 
     38 C          27.3744  -47.7631  -54.5932 C.2       7 UNK         0.5104 
     39 O          26.2741  -47.2126  -54.5427 O.2       7 UNK        -0.5100 
     40 CA         28.6472  -46.9105  -54.4339 C.3       6 UNK         0.0396 
     41 CB         29.0520  -46.8256  -52.9551 C.3       6 UNK        -0.1801 
     42 N          29.7842  -47.3871  -55.2315 N.am      6 UNK        -0.4747 
     43 C          29.7656  -47.6174  -56.5549 C.2       6 UNK         0.5012 
     44 O          28.8255  -47.2857  -57.2785 O.2       6 UNK        -0.5003 
     45 CA         30.9041  -48.4707  -57.1603 C.3       5 UNK         0.0782 
     46 C46        31.6563  -47.7719  -58.3285 C.3       11 UNK        -0.0868 
     47 S47        33.1814  -46.8729  -57.8774 S.3       11 UNK        -0.2515 
     48 C48        32.7160  -45.1308  -58.1353 C.3       11 UNK         0.0199 
     49 N          31.7953  -49.0970  -56.1712 N.am      5 UNK        -0.4607 
     50 C          31.4342  -50.0137  -55.2627 C.2       4 UNK         0.5031 
     51 O          30.2788  -50.4288  -55.1585 O.2       4 UNK        -0.5119 
     52 CA         32.4908  -50.5237  -54.2642 C.3       4 UNK         0.0263 
     53 CB         32.9068  -51.9710  -54.5921 C.3       4 UNK        -0.1967 
     54 N          33.6660  -49.6594  -54.0686 N.am      4 UNK        -0.4237 
     55 C          34.6609  -49.3840  -54.9289 C.2       3 UNK         0.4908 
     56 O          34.6848  -49.7832  -56.0925 O.2       3 UNK        -0.5102 
     57 CA         35.8220  -48.5007  -54.4291 C.3       3 UNK         0.0241 
     58 CB         35.7211  -47.0891  -55.0287 C.3       3 UNK        -0.1971 
     59 N          35.8951  -48.3948  -52.9700 N.am      3 UNK        -0.4139 
     60 C          36.2784  -49.3805  -52.1455 C.2       2 UNK         0.5016 
     61 O          36.7057  -50.4681  -52.5339 O.2       2 UNK        -0.5319 
     62 CA         36.1443  -49.1241  -50.6308 C.3       2 UNK         0.0286 
     63 CB         37.5191  -48.8141  -50.0159 C.3       2 UNK        -0.1963 
     64 N          35.2053  -48.0522  -50.2689 N.am      2 UNK        -0.4790 
     65 C          33.8891  -48.0571  -50.5264 C.2       1 UNK         0.5024 
     66 O          33.3218  -48.9641  -51.1427 O.2       1 UNK        -0.4888 
     67 H67        29.1181  -47.7711  -48.1585 H         1 UNK         0.0892 
     68 H68        29.1530  -47.5028  -49.9005 H         1 UNK         0.0892 
     69 H69        29.4139  -49.1246  -49.2535 H         1 UNK         0.0892 
     70 H70        31.1073  -46.7532  -50.7264 H         1 UNK         0.3107 
     71 H71        33.4680  -46.5352  -49.0852 H         1 UNK         0.0773 
     72 H72        34.4336  -45.3749  -51.0791 H         1 UNK         0.0680 
     73 H73        32.9060  -44.7066  -50.5895 H         1 UNK         0.0680 
     74 H74        33.3142  -43.5495  -53.2308 H         1 UNK         0.0650 
     75 H75        31.7296  -43.6447  -52.4850 H         1 UNK         0.0650 
     76 H76        33.5345  -44.7736  -55.5814 H         1 UNK         0.1397 
     77 H77        30.0882  -44.3693  -58.0912 H         1 UNK         0.1363 
     78 H78        29.8189  -43.4531  -53.9085 H         1 UNK         0.1355 
     79 H79        27.8393  -44.4147  -56.6413 H         1 UNK         0.0707 
     80 H80        27.8475  -43.4448  -55.1978 H         1 UNK         0.0707 
     81 H81        27.9030  -41.9777  -59.5100 H         1 UNK         0.1034 
     82 H82        28.1171  -43.6194  -58.9756 H         1 UNK         0.1034 
     83 H83        25.5196  -42.0298  -58.6832 H         1 UNK         0.0482 
     84 H84        24.7083  -45.0035  -60.1153 H         1 UNK         0.3460 
     85 H85        24.7623  -44.4430  -61.7679 H         1 UNK         0.3460 
     86 H86        26.1968  -44.7658  -57.8584 H         1 UNK         0.2989 
     87 H87        24.4086  -45.1224  -55.6605 H         1 UNK         0.0559 
     88 H88        22.0734  -45.8330  -57.5139 H         1 UNK         0.0848 
     89 H89        21.9958  -44.8143  -56.0843 H         1 UNK         0.0848 
     90 H90        22.3479  -46.5250  -55.9156 H         1 UNK         0.0848 
     91 H91        25.3524  -46.9755  -56.3913 H         1 UNK         0.3144 
     92 H92        24.9271  -49.1497  -58.9563 H         1 UNK         0.0727 
     93 H93        27.2905  -48.9385  -59.8203 H         1 UNK         0.0790 
     94 H94        27.2800  -47.2312  -59.3758 H         1 UNK         0.0790 
     95 H95        26.1750  -47.8295  -60.5993 H         1 UNK         0.0790 
     96 H96        27.1844  -48.5102  -57.1865 H         1 UNK         0.3215 
     97 H97        25.7595  -49.9914  -54.3434 H         1 UNK         0.0863 
     98 H98        27.5496  -51.7200  -54.3602 H         1 UNK         0.0808 
     99 H99        27.7777  -51.5005  -56.0940 H         1 UNK         0.0808 
    100 H100       26.2685  -52.1610  -55.4776 H         1 UNK         0.0808 
    101 H101       28.4880  -49.4368  -54.8992 H         1 UNK         0.3118 
    102 H102       28.3974  -45.9080  -54.7741 H         1 UNK         0.0546 
    103 H103       29.8266  -46.0757  -52.8052 H         1 UNK         0.0828 
    104 H104       29.4221  -47.7808  -52.5808 H         1 UNK         0.0828 
    105 H105       28.2045  -46.5344  -52.3328 H         1 UNK         0.0828 
    106 H106       30.6067  -47.6738  -54.7217 H         1 UNK         0.3005 
    107 H107       30.3644  -49.3023  -57.6199 H         1 UNK         0.1257 
    108 H108       30.9922  -47.1174  -58.8966 H         1 UNK         0.0775 
    109 H109       31.9651  -48.5375  -59.0419 H         1 UNK         0.0775 
    110 H110       33.6247  -44.5348  -58.2307 H         1 UNK         0.0840 
    111 H111       32.1790  -45.0220  -59.0787 H         1 UNK         0.0840 
    112 H112       32.7735  -48.8408  -56.2311 H         1 UNK         0.2987 
    113 H113       31.9928  -50.5436  -53.2933 H         1 UNK         0.0785 
    114 H114       32.0385  -52.6313  -54.6056 H         1 UNK         0.0798 
    115 H115       33.5997  -52.3625  -53.8472 H         1 UNK         0.0798 
    116 H116       33.3845  -52.0477  -55.5692 H         1 UNK         0.0798 
    117 H117       33.7288  -49.2595  -53.1374 H         1 UNK         0.3079 
    118 H118       36.7498  -48.9555  -54.7826 H         1 UNK         0.0794 
    119 H119       34.7966  -46.5934  -54.7344 H         1 UNK         0.0786 
    120 H120       35.7369  -47.1268  -56.1187 H         1 UNK         0.0786 
    121 H121       36.5557  -46.4612  -54.7165 H         1 UNK         0.0786 
    122 H122       35.5678  -47.5332  -52.5584 H         1 UNK         0.3032 
    123 H123       35.7715  -50.0505  -50.1877 H         1 UNK         0.1094 
    124 H124       38.2351  -49.6066  -50.2394 H         1 UNK         0.0794 
    125 H125       37.9340  -47.8824  -50.4027 H         1 UNK         0.0794 
    126 H126       37.4605  -48.7326  -48.9303 H         1 UNK         0.0794 
    127 H127       35.5980  -47.2647  -49.7717 H         1 UNK         0.3016 
@<TRIPOS>BOND
     1    1    2 1    
     2    1   67 1    
     3    1   68 1    
     4    1   69 1    
     5    2    3 2    
     6    2    4 am   BACKBONE|DICT|INTERRES
     7    4    5 1    
     8    4   70 1    
     9    5    6 1    
    10    5   65 1    
    11    5   71 1    
    12    6    7 1    
    13    6   72 1    
    14    6   73 1    
    15    7    8 1    
    16    8    9 1    
    17    8   74 1    
    18    8   75 1    
    19    9   10 ar   
    20    9   14 ar   
    21   10   11 ar   
    22   10   76 1    
    23   11   12 ar   
    24   11   48 1    
    25   12   13 ar   
    26   12   77 1    
    27   13   14 ar   
    28   13   15 1    
    29   14   78 1    
    30   15   16 1    
    31   15   79 1    
    32   15   80 1    
    33   16   17 1    
    34   17   18 1    
    35   17   81 1    
    36   17   82 1    
    37   18   19 1    
    38   18   22 1    
    39   18   83 1    
    40   19   20 am   BACKBONE|DICT|INTERRES
    41   19   21 2    
    42   20   84 1    
    43   20   85 1    
    44   22   23 am   BACKBONE|DICT|INTERRES
    45   22   86 1    
    46   23   24 2    
    47   23   25 1    
    48   25   26 1    
    49   25   27 1    
    50   25   87 1    
    51   26   88 1    
    52   26   89 1    
    53   26   90 1    
    54   27   28 am   BACKBONE|DICT|INTERRES
    55   27   91 1    
    56   28   29 2    
    57   28   30 1    
    58   30   31 1    
    59   30   32 1    
    60   30   92 1    
    61   31   93 1    
    62   31   94 1    
    63   31   95 1    
    64   32   33 am   BACKBONE|DICT|INTERRES
    65   32   96 1    
    66   33   34 2    
    67   33   35 1    
    68   35   36 1    
    69   35   37 1    
    70   35   97 1    
    71   36   98 1    
    72   36   99 1    
    73   36  100 1    
    74   37   38 am   BACKBONE|DICT|INTERRES
    75   37  101 1    
    76   38   39 2    
    77   38   40 1    
    78   40   41 1    
    79   40   42 1    
    80   40  102 1    
    81   41  103 1    
    82   41  104 1    
    83   41  105 1    
    84   42   43 am   BACKBONE|DICT|INTERRES
    85   42  106 1    
    86   43   44 2    
    87   43   45 1    
    88   45   46 1    
    89   45   49 1    
    90   45  107 1    
    91   46   47 1    
    92   46  108 1    
    93   46  109 1    
    94   47   48 1    
    95   48  110 1    
    96   48  111 1    
    97   49   50 am   BACKBONE|DICT|INTERRES
    98   49  112 1    
    99   50   51 2    
   100   50   52 1    
   101   52   53 1    
   102   52   54 1    
   103   52  113 1    
   104   53  114 1    
   105   53  115 1    
   106   53  116 1    
   107   54   55 am   BACKBONE|DICT|INTERRES
   108   54  117 1    
   109   55   56 2    
   110   55   57 1    
   111   57   58 1    
   112   57   59 1    
   113   57  118 1    
   114   58  119 1    
   115   58  120 1    
   116   58  121 1    
   117   59   60 am   BACKBONE|DICT|INTERRES
   118   59  122 1    
   119   60   61 2    
   120   60   62 1    
   121   62   63 1    
   122   62   64 1    
   123   62  123 1    
   124   63  124 1    
   125   63  125 1    
   126   63  126 1    
   127   64   65 am   BACKBONE|DICT|INTERRES
   128   64  127 1    
   129   65   66 2    
@<TRIPOS>SUBSTRUCTURE
     1 UNK         1 GROUP             0       ****    0 ROOT    
