@<TRIPOS>MOLECULE
3R134
127   129    1
SMALL
USER_CHARGES


@<TRIPOS>ATOM
      1 CA         29.9232  -46.6377  -48.7662 C.3       0 UNK        -0.1968 
      2 C          30.9408  -45.5792  -49.1675 C.2       0 UNK         0.4852 
      3 O          30.9207  -44.4744  -48.6232 O.2       0 UNK        -0.5359 
      4 N          31.8273  -45.9116  -50.1119 N.am      1 UNK        -0.4300 
      5 CA         32.8936  -45.0452  -50.6179 C.3       1 UNK         0.0863 
      6 C6         32.3717  -43.9494  -51.5849 C.3       11 UNK        -0.0953 
      7 S7         33.4584  -42.4869  -51.6449 S.3       11 UNK        -0.2369 
      8 C8         34.3054  -42.7039  -53.2484 C.3       11 UNK         0.0226 
      9 C9         33.3866  -42.7530  -54.4705 C.ar      11 UNK        -0.0699 
     10 C10        33.7764  -43.5189  -55.5728 C.ar      11 UNK        -0.0804 
     11 C11        32.9632  -43.5989  -56.7049 C.ar      11 UNK        -0.0871 
     12 C12        31.7660  -42.8824  -56.7463 C.ar      11 UNK        -0.1008 
     13 C13        31.3330  -42.1430  -55.6399 C.ar      11 UNK        -0.0735 
     14 C14        32.1657  -42.0645  -54.5180 C.ar      11 UNK        -0.0945 
     15 C15        29.9734  -41.4377  -55.5887 C.3       11 UNK         0.0169 
     16 S16        28.8651  -41.6890  -57.0247 S.3       11 UNK        -0.2669 
     17 C17        28.4265  -43.4663  -56.9208 C.3       11 UNK        -0.0850 
     18 CA         27.0112  -43.7792  -57.4851 C.3       10 UNK         0.0855 
     19 C          26.9634  -43.7956  -59.0482 C.2       10 UNK         0.5543 
     20 N          26.4254  -44.8200  -59.6998 N.am      10 UNK        -0.7343 
     21 O          27.4077  -42.8518  -59.6958 O.2       10 UNK        -0.5027 
     22 N          26.4554  -44.9923  -56.8618 N.am      10 UNK        -0.4495 
     23 C          25.1490  -45.2212  -56.6746 C.2       10 UNK         0.4903 
     24 O          24.2693  -44.3895  -56.9056 O.2       10 UNK        -0.4860 
     25 CA         24.7680  -46.6252  -56.1628 C.3       9 UNK         0.0227 
     26 CB         23.2487  -46.8920  -56.2074 C.3       9 UNK        -0.1964 
     27 N          25.4977  -47.7033  -56.8424 N.am      9 UNK        -0.4231 
     28 C          25.5375  -47.9634  -58.1592 C.2       9 UNK         0.5014 
     29 O          24.9276  -47.3014  -58.9996 O.2       9 UNK        -0.5270 
     30 CA         26.4298  -49.1236  -58.6471 C.3       8 UNK         0.0284 
     31 CB         27.5724  -48.5834  -59.5243 C.3       8 UNK        -0.1977 
     32 N          27.0031  -49.9305  -57.5667 N.am      8 UNK        -0.4342 
     33 C          26.3301  -50.8306  -56.8372 C.2       8 UNK         0.5039 
     34 O          25.1610  -51.1513  -57.0527 O.2       8 UNK        -0.5547 
     35 CA         27.0708  -51.4337  -55.6299 C.3       7 UNK         0.0281 
     36 CB         27.9216  -52.6398  -56.0580 C.3       7 UNK        -0.1963 
     37 N          27.9081  -50.4532  -54.9274 N.am      7 UNK        -0.4444 
     38 C          27.4365  -49.3554  -54.3153 C.2       7 UNK         0.5104 
     39 O          26.2400  -49.0822  -54.2300 O.2       7 UNK        -0.5100 
     40 CA         28.4660  -48.3586  -53.7629 C.3       6 UNK         0.0396 
     41 CB         29.0083  -48.8217  -52.4019 C.3       6 UNK        -0.1801 
     42 N          29.5745  -48.1435  -54.6911 N.am      6 UNK        -0.4747 
     43 C          29.4788  -47.5443  -55.8871 C.2       6 UNK         0.5012 
     44 O          28.4479  -47.0230  -56.3142 O.2       6 UNK        -0.5003 
     45 CA         30.7446  -47.5537  -56.7652 C.3       5 UNK         0.0782 
     46 C46        31.6504  -46.3559  -56.4129 C.3       11 UNK        -0.0868 
     47 S47        33.1861  -46.2850  -57.4081 S.3       11 UNK        -0.2515 
     48 C48        33.3284  -44.5203  -57.8602 C.3       11 UNK         0.0199 
     49 N          31.4523  -48.8317  -56.6727 N.am      5 UNK        -0.4607 
     50 C          30.9977  -49.9877  -57.1687 C.2       4 UNK         0.5031 
     51 O          29.9188  -50.1060  -57.7480 O.2       4 UNK        -0.5119 
     52 CA         31.8860  -51.2229  -56.9536 C.3       4 UNK         0.0263 
     53 CB         32.9767  -51.2978  -58.0336 C.3       4 UNK        -0.1967 
     54 N          32.5042  -51.2492  -55.6250 N.am      4 UNK        -0.4237 
     55 C          31.8181  -51.3925  -54.4829 C.2       3 UNK         0.4908 
     56 O          30.5949  -51.5241  -54.4277 O.2       3 UNK        -0.5102 
     57 CA         32.6311  -51.3422  -53.1789 C.3       3 UNK         0.0241 
     58 CB         33.3875  -52.6623  -52.9563 C.3       3 UNK        -0.1971 
     59 N          33.5644  -50.2110  -53.0829 N.am      3 UNK        -0.4139 
     60 C          33.2112  -48.9225  -53.1813 C.2       2 UNK         0.5016 
     61 O          32.0879  -48.5395  -53.5176 O.2       2 UNK        -0.5319 
     62 CA         34.2636  -47.8691  -52.8218 C.3       2 UNK         0.0286 
     63 CB         35.0292  -47.3846  -54.0632 C.3       2 UNK        -0.1963 
     64 N          33.5295  -46.7605  -52.2235 N.am      2 UNK        -0.4790 
     65 C          33.9634  -45.9435  -51.2581 C.2       1 UNK         0.5024 
     66 O          35.1184  -45.9338  -50.8316 O.2       1 UNK        -0.4888 
     67 H67        30.0687  -47.5726  -49.3071 H         1 UNK         0.0892 
     68 H68        30.0014  -46.8482  -47.6999 H         1 UNK         0.0892 
     69 H69        28.9134  -46.2826  -48.9703 H         1 UNK         0.0892 
     70 H70        31.8309  -46.8533  -50.4786 H         1 UNK         0.3107 
     71 H71        33.3541  -44.5632  -49.7521 H         1 UNK         0.0773 
     72 H72        31.4026  -43.5826  -51.2446 H         1 UNK         0.0680 
     73 H73        32.1898  -44.3441  -52.5857 H         1 UNK         0.0680 
     74 H74        34.9024  -43.6157  -53.1921 H         1 UNK         0.0650 
     75 H75        35.0094  -41.8816  -53.3803 H         1 UNK         0.0650 
     76 H76        34.7010  -44.0795  -55.5425 H         1 UNK         0.1397 
     77 H77        31.1575  -42.9497  -57.6350 H         1 UNK         0.1363 
     78 H78        31.8455  -41.4775  -53.6686 H         1 UNK         0.1355 
     79 H79        30.1496  -40.3659  -55.4873 H         1 UNK         0.0707 
     80 H80        29.4440  -41.7476  -54.6863 H         1 UNK         0.0707 
     81 H81        29.1786  -44.0696  -57.4301 H         1 UNK         0.1034 
     82 H82        28.4781  -43.7556  -55.8697 H         1 UNK         0.1034 
     83 H83        26.3649  -42.9508  -57.1890 H         1 UNK         0.0482 
     84 H84        26.4029  -44.7949  -60.7064 H         1 UNK         0.3460 
     85 H85        25.9868  -45.5912  -59.2107 H         1 UNK         0.3460 
     86 H86        27.1155  -45.7437  -56.6721 H         1 UNK         0.2989 
     87 H87        25.0783  -46.6604  -55.1177 H         1 UNK         0.0559 
     88 H88        22.7044  -46.1603  -55.6092 H         1 UNK         0.0848 
     89 H89        23.0086  -47.8776  -55.8086 H         1 UNK         0.0848 
     90 H90        22.8579  -46.8370  -57.2240 H         1 UNK         0.0848 
     91 H91        26.0459  -48.2947  -56.2296 H         1 UNK         0.3144 
     92 H92        25.8054  -49.7724  -59.2645 H         1 UNK         0.0727 
     93 H93        28.2198  -47.9050  -58.9683 H         1 UNK         0.0790 
     94 H94        27.1836  -48.0320  -60.3814 H         1 UNK         0.0790 
     95 H95        28.1904  -49.3922  -59.9148 H         1 UNK         0.0790 
     96 H96        27.9934  -49.7984  -57.3786 H         1 UNK         0.3215 
     97 H97        26.3152  -51.7854  -54.9241 H         1 UNK         0.0863 
     98 H98        28.3870  -53.1216  -55.1979 H         1 UNK         0.0808 
     99 H99        28.7140  -52.3518  -56.7488 H         1 UNK         0.0808 
    100 H100       27.3093  -53.3911  -56.5584 H         1 UNK         0.0808 
    101 H101       28.9080  -50.6372  -54.9020 H         1 UNK         0.3118 
    102 H102       27.9610  -47.4012  -53.6183 H         1 UNK         0.0546 
    103 H103       29.5586  -49.7597  -52.4835 H         1 UNK         0.0828 
    104 H104       28.1971  -48.9774  -51.6896 H         1 UNK         0.0828 
    105 H105       29.6799  -48.0786  -51.9725 H         1 UNK         0.0828 
    106 H106       30.4884  -48.4796  -54.3894 H         1 UNK         0.3005 
    107 H107       30.4166  -47.4339  -57.8003 H         1 UNK         0.1257 
    108 H108       31.0774  -45.4413  -56.5551 H         1 UNK         0.0775 
    109 H109       31.9350  -46.3759  -55.3589 H         1 UNK         0.0775 
    110 H110       34.3501  -44.3152  -58.1827 H         1 UNK         0.0840 
    111 H111       32.6916  -44.3285  -58.7252 H         1 UNK         0.0840 
    112 H112       32.3335  -48.8194  -56.1816 H         1 UNK         0.2987 
    113 H113       31.2514  -52.1068  -57.0476 H         1 UNK         0.0785 
    114 H114       32.5360  -51.2985  -59.0317 H         1 UNK         0.0798 
    115 H115       33.5652  -52.2108  -57.9409 H         1 UNK         0.0798 
    116 H116       33.6604  -50.4494  -57.9804 H         1 UNK         0.0798 
    117 H117       33.5066  -51.1384  -55.5773 H         1 UNK         0.3079 
    118 H118       31.9125  -51.2292  -52.3642 H         1 UNK         0.0794 
    119 H119       33.8524  -52.6917  -51.9706 H         1 UNK         0.0786 
    120 H120       34.1699  -52.8141  -53.7009 H         1 UNK         0.0786 
    121 H121       32.7101  -53.5156  -53.0165 H         1 UNK         0.0786 
    122 H122       34.5131  -50.4344  -52.8178 H         1 UNK         0.3032 
    123 H123       34.9603  -48.2905  -52.0932 H         1 UNK         0.1094 
    124 H124       34.3596  -46.9358  -54.7959 H         1 UNK         0.0794 
    125 H125       35.7778  -46.6379  -53.7981 H         1 UNK         0.0794 
    126 H126       35.5497  -48.2085  -54.5526 H         1 UNK         0.0794 
    127 H127       32.5621  -46.7248  -52.5230 H         1 UNK         0.3016 
@<TRIPOS>BOND
     1    1    2 1    
     2    1   67 1    
     3    1   68 1    
     4    1   69 1    
     5    2    3 2    
     6    2    4 am   BACKBONE|DICT|INTERRES
     7    4    5 1    
     8    4   70 1    
     9    5    6 1    
    10    5   65 1    
    11    5   71 1    
    12    6    7 1    
    13    6   72 1    
    14    6   73 1    
    15    7    8 1    
    16    8    9 1    
    17    8   74 1    
    18    8   75 1    
    19    9   10 ar   
    20    9   14 ar   
    21   10   11 ar   
    22   10   76 1    
    23   11   12 ar   
    24   11   48 1    
    25   12   13 ar   
    26   12   77 1    
    27   13   14 ar   
    28   13   15 1    
    29   14   78 1    
    30   15   16 1    
    31   15   79 1    
    32   15   80 1    
    33   16   17 1    
    34   17   18 1    
    35   17   81 1    
    36   17   82 1    
    37   18   19 1    
    38   18   22 1    
    39   18   83 1    
    40   19   20 am   BACKBONE|DICT|INTERRES
    41   19   21 2    
    42   20   84 1    
    43   20   85 1    
    44   22   23 am   BACKBONE|DICT|INTERRES
    45   22   86 1    
    46   23   24 2    
    47   23   25 1    
    48   25   26 1    
    49   25   27 1    
    50   25   87 1    
    51   26   88 1    
    52   26   89 1    
    53   26   90 1    
    54   27   28 am   BACKBONE|DICT|INTERRES
    55   27   91 1    
    56   28   29 2    
    57   28   30 1    
    58   30   31 1    
    59   30   32 1    
    60   30   92 1    
    61   31   93 1    
    62   31   94 1    
    63   31   95 1    
    64   32   33 am   BACKBONE|DICT|INTERRES
    65   32   96 1    
    66   33   34 2    
    67   33   35 1    
    68   35   36 1    
    69   35   37 1    
    70   35   97 1    
    71   36   98 1    
    72   36   99 1    
    73   36  100 1    
    74   37   38 am   BACKBONE|DICT|INTERRES
    75   37  101 1    
    76   38   39 2    
    77   38   40 1    
    78   40   41 1    
    79   40   42 1    
    80   40  102 1    
    81   41  103 1    
    82   41  104 1    
    83   41  105 1    
    84   42   43 am   BACKBONE|DICT|INTERRES
    85   42  106 1    
    86   43   44 2    
    87   43   45 1    
    88   45   46 1    
    89   45   49 1    
    90   45  107 1    
    91   46   47 1    
    92   46  108 1    
    93   46  109 1    
    94   47   48 1    
    95   48  110 1    
    96   48  111 1    
    97   49   50 am   BACKBONE|DICT|INTERRES
    98   49  112 1    
    99   50   51 2    
   100   50   52 1    
   101   52   53 1    
   102   52   54 1    
   103   52  113 1    
   104   53  114 1    
   105   53  115 1    
   106   53  116 1    
   107   54   55 am   BACKBONE|DICT|INTERRES
   108   54  117 1    
   109   55   56 2    
   110   55   57 1    
   111   57   58 1    
   112   57   59 1    
   113   57  118 1    
   114   58  119 1    
   115   58  120 1    
   116   58  121 1    
   117   59   60 am   BACKBONE|DICT|INTERRES
   118   59  122 1    
   119   60   61 2    
   120   60   62 1    
   121   62   63 1    
   122   62   64 1    
   123   62  123 1    
   124   63  124 1    
   125   63  125 1    
   126   63  126 1    
   127   64   65 am   BACKBONE|DICT|INTERRES
   128   64  127 1    
   129   65   66 2    
@<TRIPOS>SUBSTRUCTURE
     1 UNK         1 GROUP             0       ****    0 ROOT    
