@<TRIPOS>MOLECULE
3R134
127   129    1
SMALL
USER_CHARGES


@<TRIPOS>ATOM
      1 CA         35.2103  -44.3452  -47.6854 C.3       0 UNK        -0.1968 
      2 C          35.0896  -45.0151  -49.0460 C.2       0 UNK         0.4852 
      3 O          36.0627  -45.5956  -49.5320 O.2       0 UNK        -0.5359 
      4 N          33.9044  -44.9437  -49.6661 N.am      1 UNK        -0.4300 
      5 CA         33.5956  -45.5331  -50.9732 C.3       1 UNK         0.0863 
      6 C6         32.4175  -44.8124  -51.6796 C.3       11 UNK        -0.0953 
      7 S7         32.7097  -43.0251  -51.8927 S.3       11 UNK        -0.2369 
      8 C8         33.3177  -42.9513  -53.6132 C.3       11 UNK         0.0226 
      9 C9         32.2723  -43.2218  -54.6981 C.ar      11 UNK        -0.0699 
     10 C10        32.7065  -43.6756  -55.9476 C.ar      11 UNK        -0.0804 
     11 C11        31.7995  -43.8934  -56.9887 C.ar      11 UNK        -0.0871 
     12 C12        30.4389  -43.6649  -56.7662 C.ar      11 UNK        -0.1008 
     13 C13        29.9799  -43.2000  -55.5267 C.ar      11 UNK        -0.0735 
     14 C14        30.9056  -42.9820  -54.5014 C.ar      11 UNK        -0.0945 
     15 C15        28.4969  -42.9495  -55.2470 C.3       11 UNK         0.0169 
     16 S16        27.4996  -42.5674  -56.7277 S.3       11 UNK        -0.2669 
     17 C17        25.8374  -43.1139  -56.2009 C.3       11 UNK        -0.0850 
     18 CA         25.6494  -44.6631  -56.1840 C.3       10 UNK         0.0855 
     19 C          24.2126  -45.0880  -55.7527 C.2       10 UNK         0.5543 
     20 N          23.7003  -46.2362  -56.1784 N.am      10 UNK        -0.7343 
     21 O          23.5510  -44.3743  -55.0022 O.2       10 UNK        -0.5027 
     22 N          26.1607  -45.3295  -57.3934 N.am      10 UNK        -0.4495 
     23 C          25.7013  -45.1599  -58.6405 C.2       10 UNK         0.4903 
     24 O          24.7314  -44.4611  -58.9353 O.2       10 UNK        -0.4860 
     25 CA         26.4583  -45.8974  -59.7516 C.3       9 UNK         0.0227 
     26 CB         27.7586  -45.1546  -60.1018 C.3       9 UNK        -0.1964 
     27 N          26.7673  -47.2668  -59.3366 N.am      9 UNK        -0.4231 
     28 C          26.1655  -48.3592  -59.8234 C.2       9 UNK         0.5014 
     29 O          25.3456  -48.3438  -60.7432 O.2       9 UNK        -0.5270 
     30 CA         26.5294  -49.7072  -59.1790 C.3       8 UNK         0.0284 
     31 CB         27.7849  -50.3027  -59.8368 C.3       8 UNK        -0.1977 
     32 N          26.7134  -49.6591  -57.7254 N.am      8 UNK        -0.4342 
     33 C          25.7566  -49.3522  -56.8365 C.2       8 UNK         0.5039 
     34 O          24.6355  -48.9498  -57.1464 O.2       8 UNK        -0.5547 
     35 CA         26.1056  -49.5237  -55.3516 C.3       7 UNK         0.0281 
     36 CB         26.1958  -51.0131  -54.9782 C.3       7 UNK        -0.1963 
     37 N          27.3735  -48.8658  -55.0476 N.am      7 UNK        -0.4444 
     38 C          27.4921  -47.7034  -54.3937 C.2       7 UNK         0.5104 
     39 O          26.5516  -47.1212  -53.8541 O.2       7 UNK        -0.5100 
     40 CA         28.8927  -47.0637  -54.3327 C.3       6 UNK         0.0396 
     41 CB         29.5249  -47.3032  -52.9554 C.3       6 UNK        -0.1801 
     42 N          29.8181  -47.5241  -55.3716 N.am      6 UNK        -0.4747 
     43 C          29.6393  -47.3627  -56.6930 C.2       6 UNK         0.5012 
     44 O          28.6540  -46.8082  -57.1848 O.2       6 UNK        -0.5003 
     45 CA         30.6821  -48.0224  -57.6250 C.3       5 UNK         0.0782 
     46 C46        31.8636  -47.0711  -57.9325 C.3       11 UNK        -0.0868 
     47 S47        31.4098  -45.7337  -59.0821 S.3       11 UNK        -0.2515 
     48 C48        32.3059  -44.3164  -58.3655 C.3       11 UNK         0.0199 
     49 N          31.1833  -49.3010  -57.1095 N.am      5 UNK        -0.4607 
     50 C          30.4550  -50.3435  -56.6863 C.2       4 UNK         0.5031 
     51 O          29.2286  -50.4018  -56.7770 O.2       4 UNK        -0.5119 
     52 CA         31.2122  -51.4893  -55.9896 C.3       4 UNK         0.0263 
     53 CB         31.3490  -52.6886  -56.9404 C.3       4 UNK        -0.1967 
     54 N          32.5396  -51.1229  -55.4715 N.am      4 UNK        -0.4237 
     55 C          32.7882  -50.1668  -54.5634 C.2       3 UNK         0.4908 
     56 O          31.9206  -49.4376  -54.0766 O.2       3 UNK        -0.5102 
     57 CA         34.2684  -49.9322  -54.2198 C.3       3 UNK         0.0241 
     58 CB         34.8969  -48.9612  -55.2344 C.3       3 UNK        -0.1971 
     59 N          34.4441  -49.3838  -52.8747 N.am      3 UNK        -0.4139 
     60 C          34.2132  -50.0444  -51.7320 C.2       2 UNK         0.5016 
     61 O          33.8822  -51.2304  -51.6820 O.2       2 UNK        -0.5319 
     62 CA         34.4084  -49.2639  -50.4176 C.3       2 UNK         0.0286 
     63 CB         35.7105  -49.6958  -49.7230 C.3       2 UNK        -0.1963 
     64 N          34.4267  -47.8069  -50.5917 N.am      2 UNK        -0.4790 
     65 C          33.3465  -47.0489  -50.8207 C.2       1 UNK         0.5024 
     66 O          32.2028  -47.5009  -50.8760 O.2       1 UNK        -0.4888 
     67 H67        34.2798  -43.8651  -47.3830 H         1 UNK         0.0892 
     68 H68        35.4744  -45.0817  -46.9271 H         1 UNK         0.0892 
     69 H69        35.9911  -43.5855  -47.7099 H         1 UNK         0.0892 
     70 H70        33.1374  -44.4638  -49.2171 H         1 UNK         0.3107 
     71 H71        34.4700  -45.4168  -51.6176 H         1 UNK         0.0773 
     72 H72        32.2331  -45.2573  -52.6587 H         1 UNK         0.0680 
     73 H73        31.4931  -44.9311  -51.1112 H         1 UNK         0.0680 
     74 H74        34.1488  -43.6514  -53.7114 H         1 UNK         0.0650 
     75 H75        33.7316  -41.9568  -53.7835 H         1 UNK         0.0650 
     76 H76        33.7625  -43.8383  -56.1164 H         1 UNK         0.1397 
     77 H77        29.7419  -43.8477  -57.5712 H         1 UNK         0.1363 
     78 H78        30.5527  -42.6170  -53.5474 H         1 UNK         0.1355 
     79 H79        28.0955  -43.8287  -54.7473 H         1 UNK         0.0707 
     80 H80        28.3851  -42.1215  -54.5453 H         1 UNK         0.0707 
     81 H81        25.1096  -42.6580  -56.8743 H         1 UNK         0.1034 
     82 H82        25.6333  -42.6937  -55.2143 H         1 UNK         0.1034 
     83 H83        26.2815  -45.0399  -55.3836 H         1 UNK         0.0482 
     84 H84        22.7726  -46.4943  -55.8834 H         1 UNK         0.3460 
     85 H85        24.2339  -46.8749  -56.7535 H         1 UNK         0.3460 
     86 H86        26.9969  -45.8893  -57.2580 H         1 UNK         0.2989 
     87 H87        25.8261  -45.8977  -60.6419 H         1 UNK         0.0559 
     88 H88        27.5473  -44.1401  -60.4422 H         1 UNK         0.0848 
     89 H89        28.3027  -45.6596  -60.8998 H         1 UNK         0.0848 
     90 H90        28.4251  -45.0740  -59.2431 H         1 UNK         0.0848 
     91 H91        27.4223  -47.3657  -58.5672 H         1 UNK         0.3144 
     92 H92        25.6980  -50.3888  -59.3709 H         1 UNK         0.0727 
     93 H93        28.6638  -49.6811  -59.6698 H         1 UNK         0.0790 
     94 H94        27.6528  -50.3970  -60.9155 H         1 UNK         0.0790 
     95 H95        28.0018  -51.2985  -59.4494 H         1 UNK         0.0790 
     96 H96        27.6151  -49.9837  -57.3774 H         1 UNK         0.3215 
     97 H97        25.2950  -49.0811  -54.7682 H         1 UNK         0.0863 
     98 H98        26.3791  -51.1401  -53.9112 H         1 UNK         0.0808 
     99 H99        26.9952  -51.5243  -55.5161 H         1 UNK         0.0808 
    100 H100       25.2634  -51.5298  -55.2101 H         1 UNK         0.0808 
    101 H101       28.2030  -49.2658  -55.4719 H         1 UNK         0.3118 
    102 H102       28.7671  -45.9894  -54.4666 H         1 UNK         0.0546 
    103 H103       29.6777  -48.3651  -52.7589 H         1 UNK         0.0828 
    104 H104       28.8942  -46.9091  -52.1576 H         1 UNK         0.0828 
    105 H105       30.4920  -46.8104  -52.8764 H         1 UNK         0.0828 
    106 H106       30.6246  -48.0499  -55.0493 H         1 UNK         0.3005 
    107 H107       30.1715  -48.2486  -58.5623 H         1 UNK         0.1257 
    108 H108       32.6762  -47.6223  -58.4087 H         1 UNK         0.0775 
    109 H109       32.2830  -46.6617  -57.0112 H         1 UNK         0.0775 
    110 H110       33.3693  -44.5591  -58.3322 H         1 UNK         0.0840 
    111 H111       32.2086  -43.4674  -59.0433 H         1 UNK         0.0840 
    112 H112       32.1827  -49.3635  -56.9900 H         1 UNK         0.2987 
    113 H113       30.6037  -51.7958  -55.1362 H         1 UNK         0.0785 
    114 H114       30.3743  -52.9997  -57.3197 H         1 UNK         0.0798 
    115 H115       31.7854  -53.5500  -56.4343 H         1 UNK         0.0798 
    116 H116       31.9733  -52.4518  -57.8029 H         1 UNK         0.0798 
    117 H117       33.3187  -51.6558  -55.8321 H         1 UNK         0.3079 
    118 H118       34.7964  -50.8871  -54.2673 H         1 UNK         0.0794 
    119 H119       35.9537  -48.7957  -55.0230 H         1 UNK         0.0786 
    120 H120       34.3980  -47.9907  -55.2279 H         1 UNK         0.0786 
    121 H121       34.8323  -49.3543  -56.2498 H         1 UNK         0.0786 
    122 H122       34.6914  -48.4085  -52.8088 H         1 UNK         0.3032 
    123 H123       33.5705  -49.5224  -49.7656 H         1 UNK         0.1094 
    124 H124       35.8252  -49.2066  -48.7554 H         1 UNK         0.0794 
    125 H125       35.7200  -50.7719  -49.5432 H         1 UNK         0.0794 
    126 H126       36.5878  -49.4580  -50.3260 H         1 UNK         0.0794 
    127 H127       35.3156  -47.3329  -50.4653 H         1 UNK         0.3016 
@<TRIPOS>BOND
     1    1    2 1    
     2    1   67 1    
     3    1   68 1    
     4    1   69 1    
     5    2    3 2    
     6    2    4 am   BACKBONE|DICT|INTERRES
     7    4    5 1    
     8    4   70 1    
     9    5    6 1    
    10    5   65 1    
    11    5   71 1    
    12    6    7 1    
    13    6   72 1    
    14    6   73 1    
    15    7    8 1    
    16    8    9 1    
    17    8   74 1    
    18    8   75 1    
    19    9   10 ar   
    20    9   14 ar   
    21   10   11 ar   
    22   10   76 1    
    23   11   12 ar   
    24   11   48 1    
    25   12   13 ar   
    26   12   77 1    
    27   13   14 ar   
    28   13   15 1    
    29   14   78 1    
    30   15   16 1    
    31   15   79 1    
    32   15   80 1    
    33   16   17 1    
    34   17   18 1    
    35   17   81 1    
    36   17   82 1    
    37   18   19 1    
    38   18   22 1    
    39   18   83 1    
    40   19   20 am   BACKBONE|DICT|INTERRES
    41   19   21 2    
    42   20   84 1    
    43   20   85 1    
    44   22   23 am   BACKBONE|DICT|INTERRES
    45   22   86 1    
    46   23   24 2    
    47   23   25 1    
    48   25   26 1    
    49   25   27 1    
    50   25   87 1    
    51   26   88 1    
    52   26   89 1    
    53   26   90 1    
    54   27   28 am   BACKBONE|DICT|INTERRES
    55   27   91 1    
    56   28   29 2    
    57   28   30 1    
    58   30   31 1    
    59   30   32 1    
    60   30   92 1    
    61   31   93 1    
    62   31   94 1    
    63   31   95 1    
    64   32   33 am   BACKBONE|DICT|INTERRES
    65   32   96 1    
    66   33   34 2    
    67   33   35 1    
    68   35   36 1    
    69   35   37 1    
    70   35   97 1    
    71   36   98 1    
    72   36   99 1    
    73   36  100 1    
    74   37   38 am   BACKBONE|DICT|INTERRES
    75   37  101 1    
    76   38   39 2    
    77   38   40 1    
    78   40   41 1    
    79   40   42 1    
    80   40  102 1    
    81   41  103 1    
    82   41  104 1    
    83   41  105 1    
    84   42   43 am   BACKBONE|DICT|INTERRES
    85   42  106 1    
    86   43   44 2    
    87   43   45 1    
    88   45   46 1    
    89   45   49 1    
    90   45  107 1    
    91   46   47 1    
    92   46  108 1    
    93   46  109 1    
    94   47   48 1    
    95   48  110 1    
    96   48  111 1    
    97   49   50 am   BACKBONE|DICT|INTERRES
    98   49  112 1    
    99   50   51 2    
   100   50   52 1    
   101   52   53 1    
   102   52   54 1    
   103   52  113 1    
   104   53  114 1    
   105   53  115 1    
   106   53  116 1    
   107   54   55 am   BACKBONE|DICT|INTERRES
   108   54  117 1    
   109   55   56 2    
   110   55   57 1    
   111   57   58 1    
   112   57   59 1    
   113   57  118 1    
   114   58  119 1    
   115   58  120 1    
   116   58  121 1    
   117   59   60 am   BACKBONE|DICT|INTERRES
   118   59  122 1    
   119   60   61 2    
   120   60   62 1    
   121   62   63 1    
   122   62   64 1    
   123   62  123 1    
   124   63  124 1    
   125   63  125 1    
   126   63  126 1    
   127   64   65 am   BACKBONE|DICT|INTERRES
   128   64  127 1    
   129   65   66 2    
@<TRIPOS>SUBSTRUCTURE
     1 UNK         1 GROUP             0       ****    0 ROOT    
