@<TRIPOS>MOLECULE
3R134
127   129    1
SMALL
USER_CHARGES


@<TRIPOS>ATOM
      1 CA         31.5756  -48.4359  -48.4828 C.3       0 UNK        -0.1968 
      2 C          32.7438  -47.4637  -48.5565 C.2       0 UNK         0.4852 
      3 O          33.7772  -47.6995  -47.9288 O.2       0 UNK        -0.5359 
      4 N          32.5854  -46.3719  -49.3162 N.am      1 UNK        -0.4300 
      5 CA         33.6115  -45.3487  -49.5556 C.3       1 UNK         0.0863 
      6 C6         33.0016  -44.0404  -50.1243 C.3       11 UNK        -0.0953 
      7 S7         31.9317  -44.2953  -51.5833 S.3       11 UNK        -0.2369 
      8 C8         32.9059  -43.5164  -52.9094 C.3       11 UNK         0.0226 
      9 C9         32.2411  -43.7027  -54.2678 C.ar      11 UNK        -0.0699 
     10 C10        32.8865  -44.4105  -55.2847 C.ar      11 UNK        -0.0804 
     11 C11        32.2695  -44.6030  -56.5238 C.ar      11 UNK        -0.0871 
     12 C12        30.9922  -44.0774  -56.7445 C.ar      11 UNK        -0.1008 
     13 C13        30.3356  -43.3483  -55.7406 C.ar      11 UNK        -0.0735 
     14 C14        30.9752  -43.1636  -54.5110 C.ar      11 UNK        -0.0945 
     15 C15        28.9194  -42.7898  -55.8929 C.3       11 UNK         0.0169 
     16 S16        28.2328  -42.8140  -57.5825 S.3       11 UNK        -0.2669 
     17 C17        26.4414  -42.8179  -57.2175 C.3       11 UNK        -0.0850 
     18 CA         25.8914  -44.2377  -56.8829 C.3       10 UNK         0.0855 
     19 C          24.3772  -44.2433  -56.5161 C.2       10 UNK         0.5543 
     20 N          23.6866  -45.3744  -56.5959 N.am      10 UNK        -0.7343 
     21 O          23.8187  -43.2169  -56.1354 O.2       10 UNK        -0.5027 
     22 N          26.2860  -45.2473  -57.8758 N.am      10 UNK        -0.4495 
     23 C          25.9007  -45.2924  -59.1581 C.2       10 UNK         0.4903 
     24 O          25.0894  -44.5201  -59.6692 O.2       10 UNK        -0.4860 
     25 CA         26.5377  -46.3894  -60.0210 C.3       9 UNK         0.0227 
     26 CB         27.9338  -45.9566  -60.5023 C.3       9 UNK        -0.1964 
     27 N          26.6398  -47.6376  -59.2627 N.am      9 UNK        -0.4231 
     28 C          25.8489  -48.7014  -59.4479 C.2       9 UNK         0.5014 
     29 O          25.0129  -48.7911  -60.3486 O.2       9 UNK        -0.5270 
     30 CA         26.0069  -49.8741  -58.4663 C.3       8 UNK         0.0284 
     31 CB         27.0581  -50.8719  -58.9800 C.3       8 UNK        -0.1977 
     32 N          26.3320  -49.4878  -57.0895 N.am      8 UNK        -0.4342 
     33 C          25.5285  -48.7852  -56.2763 C.2       8 UNK         0.5039 
     34 O          24.4882  -48.2392  -56.6439 O.2       8 UNK        -0.5547 
     35 CA         25.9476  -48.6819  -54.8031 C.3       7 UNK         0.0281 
     36 CB         25.7944  -50.0392  -54.0959 C.3       7 UNK        -0.1963 
     37 N          27.3316  -48.2309  -54.6926 N.am      7 UNK        -0.4444 
     38 C          27.7096  -47.0119  -54.2859 C.2       7 UNK         0.5104 
     39 O          26.9369  -46.1625  -53.8418 O.2       7 UNK        -0.5100 
     40 CA         29.2050  -46.6655  -54.4171 C.3       6 UNK         0.0396 
     41 CB         29.9360  -46.9347  -53.0942 C.3       6 UNK        -0.1801 
     42 N          29.9009  -47.3792  -55.4904 N.am      6 UNK        -0.4747 
     43 C          29.5461  -47.4001  -56.7849 C.2       6 UNK         0.5012 
     44 O          28.5821  -46.7896  -57.2471 O.2       6 UNK        -0.5003 
     45 CA         30.3327  -48.3497  -57.7103 C.3       5 UNK         0.0782 
     46 C46        31.4614  -47.6012  -58.4623 C.3       11 UNK        -0.0868 
     47 S47        32.9053  -47.1620  -57.4266 S.3       11 UNK        -0.2515 
     48 C48        33.0073  -45.3522  -57.6258 C.3       11 UNK         0.0199 
     49 N          30.8129  -49.5604  -57.0301 N.am      5 UNK        -0.4607 
     50 C          30.0694  -50.4067  -56.3002 C.2       4 UNK         0.5031 
     51 O          28.8433  -50.3259  -56.2070 O.2       4 UNK        -0.5119 
     52 CA         30.8001  -51.4938  -55.4901 C.3       4 UNK         0.0263 
     53 CB         30.5810  -52.8700  -56.1384 C.3       4 UNK        -0.1967 
     54 N          32.2400  -51.2793  -55.2889 N.am      4 UNK        -0.4237 
     55 C          32.8167  -50.2107  -54.7177 C.2       3 UNK         0.4908 
     56 O          32.1890  -49.2246  -54.3219 O.2       3 UNK        -0.5102 
     57 CA         34.3553  -50.2578  -54.6270 C.3       3 UNK         0.0241 
     58 CB         34.9940  -50.3742  -56.0246 C.3       3 UNK        -0.1971 
     59 N          34.9208  -49.0813  -53.9665 N.am      3 UNK        -0.4139 
     60 C          34.8656  -48.8129  -52.6563 C.2       2 UNK         0.5016 
     61 O          34.3671  -49.5695  -51.8196 O.2       2 UNK        -0.5319 
     62 CA         35.4701  -47.4769  -52.1931 C.3       2 UNK         0.0286 
     63 CB         35.8762  -46.5289  -53.3456 C.3       2 UNK        -0.1963 
     64 N          34.5087  -46.8290  -51.3062 N.am      2 UNK        -0.4790 
     65 C          34.7807  -45.8570  -50.4271 C.2       1 UNK         0.5024 
     66 O          35.8996  -45.3624  -50.2808 O.2       1 UNK        -0.4888 
     67 H67        31.2545  -48.5599  -47.4490 H         1 UNK         0.0892 
     68 H68        31.8761  -49.4106  -48.8667 H         1 UNK         0.0892 
     69 H69        30.7205  -48.0919  -49.0645 H         1 UNK         0.0892 
     70 H70        31.7127  -46.2204  -49.8028 H         1 UNK         0.3107 
     71 H71        34.0474  -45.1015  -48.5849 H         1 UNK         0.0773 
     72 H72        32.3872  -43.5711  -49.3546 H         1 UNK         0.0680 
     73 H73        33.7817  -43.3116  -50.3535 H         1 UNK         0.0680 
     74 H74        33.9108  -43.9417  -52.9090 H         1 UNK         0.0650 
     75 H75        33.0135  -42.4508  -52.7024 H         1 UNK         0.0650 
     76 H76        33.8745  -44.8112  -55.1187 H         1 UNK         0.1397 
     77 H77        30.5159  -44.2505  -57.6986 H         1 UNK         0.1363 
     78 H78        30.4735  -42.6184  -53.7229 H         1 UNK         0.1355 
     79 H79        28.8939  -41.7605  -55.5318 H         1 UNK         0.0707 
     80 H80        28.2681  -43.3646  -55.2340 H         1 UNK         0.0707 
     81 H81        25.9173  -42.4060  -58.0815 H         1 UNK         0.1034 
     82 H82        26.2499  -42.1264  -56.3949 H         1 UNK         0.1034 
     83 H83        26.3819  -44.5534  -55.9633 H         1 UNK         0.0482 
     84 H84        22.7092  -45.3674  -56.3533 H         1 UNK         0.3460 
     85 H85        24.1319  -46.2511  -56.8448 H         1 UNK         0.3460 
     86 H86        27.0201  -45.8794  -57.5703 H         1 UNK         0.2989 
     87 H87        25.9098  -46.5266  -60.9037 H         1 UNK         0.0559 
     88 H88        28.3993  -46.7284  -61.1151 H         1 UNK         0.0848 
     89 H89        28.6056  -45.7355  -59.6725 H         1 UNK         0.0848 
     90 H90        27.8691  -45.0540  -61.1112 H         1 UNK         0.0848 
     91 H91        27.2733  -47.6308  -58.4713 H         1 UNK         0.3144 
     92 H92        25.0459  -50.3918  -58.4320 H         1 UNK         0.0727 
     93 H93        27.1132  -51.7541  -58.3418 H         1 UNK         0.0790 
     94 H94        28.0528  -50.4287  -59.0224 H         1 UNK         0.0790 
     95 H95        26.8116  -51.2156  -59.9856 H         1 UNK         0.0790 
     96 H96        27.1914  -49.8820  -56.7084 H         1 UNK         0.3215 
     97 H97        25.2732  -47.9728  -54.3178 H         1 UNK         0.0863 
     98 H98        26.0167  -49.9549  -53.0321 H         1 UNK         0.0808 
     99 H99        26.4576  -50.7972  -54.5150 H         1 UNK         0.0808 
    100 H100       24.7731  -50.4122  -54.1845 H         1 UNK         0.0808 
    101 H101       28.0420  -48.8504  -55.0669 H         1 UNK         0.3118 
    102 H102       29.2728  -45.6014  -54.6371 H         1 UNK         0.0546 
    103 H103       29.8926  -47.9885  -52.8160 H         1 UNK         0.0828 
    104 H104       29.4962  -46.3583  -52.2795 H         1 UNK         0.0828 
    105 H105       30.9869  -46.6533  -53.1634 H         1 UNK         0.0828 
    106 H106       30.7087  -47.9277  -55.2124 H         1 UNK         0.3005 
    107 H107       29.6187  -48.6894  -58.4624 H         1 UNK         0.1257 
    108 H108       31.8281  -48.2318  -59.2736 H         1 UNK         0.0775 
    109 H109       31.0635  -46.7101  -58.9516 H         1 UNK         0.0775 
    110 H110       34.0600  -45.0662  -57.6050 H         1 UNK         0.0840 
    111 H111       32.6438  -45.0542  -58.6102 H         1 UNK         0.0840 
    112 H112       31.8144  -49.6838  -57.0206 H         1 UNK         0.2987 
    113 H113       30.3383  -51.5054  -54.5009 H         1 UNK         0.0785 
    114 H114       31.0512  -52.9328  -57.1206 H         1 UNK         0.0798 
    115 H115       29.5176  -53.0749  -56.2734 H         1 UNK         0.0798 
    116 H116       30.9846  -53.6712  -55.5190 H         1 UNK         0.0798 
    117 H117       32.8398  -52.0332  -55.5921 H         1 UNK         0.3079 
    118 H118       34.6262  -51.1396  -54.0423 H         1 UNK         0.0794 
    119 H119       34.7222  -49.5336  -56.6643 H         1 UNK         0.0786 
    120 H120       34.6865  -51.2865  -56.5365 H         1 UNK         0.0786 
    121 H121       36.0821  -50.4032  -55.9599 H         1 UNK         0.0786 
    122 H122       35.3102  -48.3764  -54.5743 H         1 UNK         0.3032 
    123 H123       36.3625  -47.7224  -51.6131 H         1 UNK         0.1094 
    124 H124       36.2652  -45.5820  -52.9714 H         1 UNK         0.0794 
    125 H125       36.6639  -46.9655  -53.9609 H         1 UNK         0.0794 
    126 H126       35.0293  -46.3049  -53.9915 H         1 UNK         0.0794 
    127 H127       33.5761  -47.2201  -51.3231 H         1 UNK         0.3016 
@<TRIPOS>BOND
     1    1    2 1    
     2    1   67 1    
     3    1   68 1    
     4    1   69 1    
     5    2    3 2    
     6    2    4 am   BACKBONE|DICT|INTERRES
     7    4    5 1    
     8    4   70 1    
     9    5    6 1    
    10    5   65 1    
    11    5   71 1    
    12    6    7 1    
    13    6   72 1    
    14    6   73 1    
    15    7    8 1    
    16    8    9 1    
    17    8   74 1    
    18    8   75 1    
    19    9   10 ar   
    20    9   14 ar   
    21   10   11 ar   
    22   10   76 1    
    23   11   12 ar   
    24   11   48 1    
    25   12   13 ar   
    26   12   77 1    
    27   13   14 ar   
    28   13   15 1    
    29   14   78 1    
    30   15   16 1    
    31   15   79 1    
    32   15   80 1    
    33   16   17 1    
    34   17   18 1    
    35   17   81 1    
    36   17   82 1    
    37   18   19 1    
    38   18   22 1    
    39   18   83 1    
    40   19   20 am   BACKBONE|DICT|INTERRES
    41   19   21 2    
    42   20   84 1    
    43   20   85 1    
    44   22   23 am   BACKBONE|DICT|INTERRES
    45   22   86 1    
    46   23   24 2    
    47   23   25 1    
    48   25   26 1    
    49   25   27 1    
    50   25   87 1    
    51   26   88 1    
    52   26   89 1    
    53   26   90 1    
    54   27   28 am   BACKBONE|DICT|INTERRES
    55   27   91 1    
    56   28   29 2    
    57   28   30 1    
    58   30   31 1    
    59   30   32 1    
    60   30   92 1    
    61   31   93 1    
    62   31   94 1    
    63   31   95 1    
    64   32   33 am   BACKBONE|DICT|INTERRES
    65   32   96 1    
    66   33   34 2    
    67   33   35 1    
    68   35   36 1    
    69   35   37 1    
    70   35   97 1    
    71   36   98 1    
    72   36   99 1    
    73   36  100 1    
    74   37   38 am   BACKBONE|DICT|INTERRES
    75   37  101 1    
    76   38   39 2    
    77   38   40 1    
    78   40   41 1    
    79   40   42 1    
    80   40  102 1    
    81   41  103 1    
    82   41  104 1    
    83   41  105 1    
    84   42   43 am   BACKBONE|DICT|INTERRES
    85   42  106 1    
    86   43   44 2    
    87   43   45 1    
    88   45   46 1    
    89   45   49 1    
    90   45  107 1    
    91   46   47 1    
    92   46  108 1    
    93   46  109 1    
    94   47   48 1    
    95   48  110 1    
    96   48  111 1    
    97   49   50 am   BACKBONE|DICT|INTERRES
    98   49  112 1    
    99   50   51 2    
   100   50   52 1    
   101   52   53 1    
   102   52   54 1    
   103   52  113 1    
   104   53  114 1    
   105   53  115 1    
   106   53  116 1    
   107   54   55 am   BACKBONE|DICT|INTERRES
   108   54  117 1    
   109   55   56 2    
   110   55   57 1    
   111   57   58 1    
   112   57   59 1    
   113   57  118 1    
   114   58  119 1    
   115   58  120 1    
   116   58  121 1    
   117   59   60 am   BACKBONE|DICT|INTERRES
   118   59  122 1    
   119   60   61 2    
   120   60   62 1    
   121   62   63 1    
   122   62   64 1    
   123   62  123 1    
   124   63  124 1    
   125   63  125 1    
   126   63  126 1    
   127   64   65 am   BACKBONE|DICT|INTERRES
   128   64  127 1    
   129   65   66 2    
@<TRIPOS>SUBSTRUCTURE
     1 UNK         1 GROUP             0       ****    0 ROOT    
