@<TRIPOS>MOLECULE
3R134
127   129    1
SMALL
USER_CHARGES


@<TRIPOS>ATOM
      1 CA         32.6633  -49.1789  -58.5778 C.3       0 UNK        -0.1968 
      2 C          32.8338  -48.8933  -57.0942 C.2       0 UNK         0.4852 
      3 O          32.6407  -49.7921  -56.2771 O.2       0 UNK        -0.5359 
      4 N          33.2078  -47.6533  -56.7435 N.am      1 UNK        -0.4300 
      5 CA         33.2875  -47.1211  -55.3725 C.3       1 UNK         0.0863 
      6 C6         33.6456  -45.6126  -55.3516 C.3       11 UNK        -0.0953 
      7 S7         32.5949  -44.6031  -56.4511 S.3       11 UNK        -0.2369 
      8 C8         32.8509  -42.9327  -55.7787 C.3       11 UNK         0.0226 
      9 C9         31.6737  -42.4901  -54.9232 C.ar      11 UNK        -0.0699 
     10 C10        31.6058  -42.8478  -53.5734 C.ar      11 UNK        -0.0804 
     11 C11        30.5251  -42.4393  -52.7844 C.ar      11 UNK        -0.0871 
     12 C12        29.5177  -41.6550  -53.3527 C.ar      11 UNK        -0.1008 
     13 C13        29.5825  -41.2768  -54.6959 C.ar      11 UNK        -0.0735 
     14 C14        30.6594  -41.7028  -55.4792 C.ar      11 UNK        -0.0945 
     15 C15        28.5009  -40.3801  -55.2796 C.3       11 UNK         0.0169 
     16 S16        27.0591  -41.3364  -55.8381 S.3       11 UNK        -0.2669 
     17 C17        27.6122  -41.8482  -57.4977 C.3       11 UNK        -0.0850 
     18 CA         26.5330  -42.6714  -58.2434 C.3       10 UNK         0.0855 
     19 C          26.9481  -42.8977  -59.7216 C.2       10 UNK         0.5543 
     20 N          26.2918  -42.2353  -60.6639 N.am      10 UNK        -0.7343 
     21 O          27.8931  -43.6284  -60.0108 O.2       10 UNK        -0.5027 
     22 N          26.2729  -43.9426  -57.5577 N.am      10 UNK        -0.4495 
     23 C          25.2470  -44.7635  -57.8125 C.2       10 UNK         0.4903 
     24 O          24.3182  -44.4889  -58.5745 O.2       10 UNK        -0.4860 
     25 CA         25.2885  -46.1250  -57.0901 C.3       9 UNK         0.0227 
     26 CB         24.2221  -47.1188  -57.5967 C.3       9 UNK        -0.1964 
     27 N          26.6279  -46.7254  -57.1270 N.am      9 UNK        -0.4231 
     28 C          27.3385  -47.0582  -58.2183 C.2       9 UNK         0.5014 
     29 O          26.9248  -46.9762  -59.3753 O.2       9 UNK        -0.5270 
     30 CA         28.7607  -47.5784  -57.9651 C.3       8 UNK         0.0284 
     31 CB         29.6940  -46.4285  -57.5548 C.3       8 UNK        -0.1977 
     32 N          28.7678  -48.6254  -56.9436 N.am      8 UNK        -0.4342 
     33 C          28.3400  -49.8785  -57.1548 C.2       8 UNK         0.5039 
     34 O          28.0400  -50.3246  -58.2630 O.2       8 UNK        -0.5547 
     35 CA         28.1924  -50.7816  -55.9210 C.3       7 UNK         0.0281 
     36 CB         29.4848  -51.5685  -55.6636 C.3       7 UNK        -0.1963 
     37 N          27.8155  -50.0191  -54.7265 N.am      7 UNK        -0.4444 
     38 C          26.5680  -49.5788  -54.4965 C.2       7 UNK         0.5104 
     39 O          25.6120  -49.8366  -55.2279 O.2       7 UNK        -0.5100 
     40 CA         26.3251  -48.7013  -53.2538 C.3       6 UNK         0.0396 
     41 CB         25.7576  -49.5499  -52.1049 C.3       6 UNK        -0.1801 
     42 N          27.5110  -47.9869  -52.7788 N.am      6 UNK        -0.4747 
     43 C          28.1466  -47.0083  -53.4396 C.2       6 UNK         0.5012 
     44 O          27.7933  -46.5871  -54.5417 O.2       6 UNK        -0.5003 
     45 CA         29.4255  -46.4536  -52.7777 C.3       5 UNK         0.0782 
     46 C46        29.0881  -45.2527  -51.8583 C.3       11 UNK        -0.0868 
     47 S47        30.5716  -44.5999  -51.0112 S.3       11 UNK        -0.2515 
     48 C48        30.4534  -42.8079  -51.3084 C.3       11 UNK         0.0199 
     49 N          30.1878  -47.4814  -52.0538 N.am      5 UNK        -0.4607 
     50 C          30.6714  -48.6182  -52.5652 C.2       4 UNK         0.5031 
     51 O          30.4451  -48.9960  -53.7152 O.2       4 UNK        -0.5119 
     52 CA         31.5382  -49.4499  -51.6086 C.3       4 UNK         0.0263 
     53 CB         30.6875  -50.1757  -50.5450 C.3       4 UNK        -0.1967 
     54 N          32.4488  -50.3459  -52.3292 N.am      4 UNK        -0.4237 
     55 C          32.2169  -51.5474  -52.8818 C.2       3 UNK         0.4908 
     56 O          31.1687  -52.1808  -52.7524 O.2       3 UNK        -0.5102 
     57 CA         33.3680  -52.1572  -53.7098 C.3       3 UNK         0.0241 
     58 CB         32.8567  -53.0240  -54.8759 C.3       3 UNK        -0.1971 
     59 N          34.2494  -51.1170  -54.2465 N.am      3 UNK        -0.4139 
     60 C          35.4322  -50.7566  -53.7272 C.2       2 UNK         0.5016 
     61 O          35.9608  -51.3274  -52.7730 O.2       2 UNK        -0.5319 
     62 CA         36.1360  -49.5310  -54.3441 C.3       2 UNK         0.0286 
     63 CB         37.2324  -49.9785  -55.3241 C.3       2 UNK        -0.1963 
     64 N          35.2258  -48.6102  -55.0324 N.am      2 UNK        -0.4790 
     65 C          34.2460  -47.9043  -54.4469 C.2       1 UNK         0.5024 
     66 O          34.0653  -47.8831  -53.2291 O.2       1 UNK        -0.4888 
     67 H67        33.3321  -49.9824  -58.8847 H         1 UNK         0.0892 
     68 H68        32.8773  -48.3033  -59.1904 H         1 UNK         0.0892 
     69 H69        31.6387  -49.4915  -58.7790 H         1 UNK         0.0892 
     70 H70        33.3640  -46.9655  -57.4670 H         1 UNK         0.3107 
     71 H71        32.2888  -47.2320  -54.9449 H         1 UNK         0.0773 
     72 H72        33.5569  -45.2249  -54.3350 H         1 UNK         0.0680 
     73 H73        34.6843  -45.4590  -55.6511 H         1 UNK         0.0680 
     74 H74        33.7762  -42.8917  -55.2020 H         1 UNK         0.0650 
     75 H75        32.9862  -42.2418  -56.6121 H         1 UNK         0.0650 
     76 H76        32.3920  -43.4469  -53.1353 H         1 UNK         0.1397 
     77 H77        28.6842  -41.3245  -52.7476 H         1 UNK         0.1363 
     78 H78        30.7142  -41.4129  -56.5196 H         1 UNK         0.1355 
     79 H79        28.8964  -39.7822  -56.1023 H         1 UNK         0.0707 
     80 H80        28.1725  -39.6668  -54.5220 H         1 UNK         0.0707 
     81 H81        28.5384  -42.4195  -57.4098 H         1 UNK         0.1034 
     82 H82        27.8587  -40.9464  -58.0621 H         1 UNK         0.1034 
     83 H83        25.6041  -42.0968  -58.2319 H         1 UNK         0.0482 
     84 H84        25.5190  -41.6301  -60.4331 H         1 UNK         0.3460 
     85 H85        26.5613  -42.3579  -61.6275 H         1 UNK         0.3460 
     86 H86        26.9898  -44.2537  -56.9200 H         1 UNK         0.2989 
     87 H87        25.0762  -45.9222  -56.0394 H         1 UNK         0.0559 
     88 H88        24.3392  -47.3341  -58.6592 H         1 UNK         0.0848 
     89 H89        23.2175  -46.7188  -57.4554 H         1 UNK         0.0848 
     90 H90        24.2737  -48.0639  -57.0558 H         1 UNK         0.0848 
     91 H91        27.0872  -46.7993  -56.2204 H         1 UNK         0.3144 
     92 H92        29.1379  -47.9992  -58.8999 H         1 UNK         0.0727 
     93 H93        30.7242  -46.7690  -57.4869 H         1 UNK         0.0790 
     94 H94        29.4230  -45.9938  -56.5926 H         1 UNK         0.0790 
     95 H95        29.6703  -45.6245  -58.2922 H         1 UNK         0.0790 
     96 H96        29.0007  -48.3526  -55.9987 H         1 UNK         0.3215 
     97 H97        27.4024  -51.5052  -56.1349 H         1 UNK         0.0863 
     98 H98        29.3752  -52.2465  -54.8175 H         1 UNK         0.0808 
     99 H99        30.3268  -50.9082  -55.4576 H         1 UNK         0.0808 
    100 H100       29.7533  -52.1722  -56.5313 H         1 UNK         0.0808 
    101 H101       28.5702  -49.7436  -54.1058 H         1 UNK         0.3118 
    102 H102       25.5766  -47.9543  -53.5269 H         1 UNK         0.0546 
    103 H103       24.8523  -50.0730  -52.4163 H         1 UNK         0.0828 
    104 H104       25.4920  -48.9320  -51.2470 H         1 UNK         0.0828 
    105 H105       26.4702  -50.3047  -51.7697 H         1 UNK         0.0828 
    106 H106       27.8908  -48.2788  -51.8897 H         1 UNK         0.3005 
    107 H107       30.0654  -46.0927  -53.5866 H         1 UNK         0.1257 
    108 H108       28.3673  -45.5425  -51.0912 H         1 UNK         0.0775 
    109 H109       28.6134  -44.4572  -52.4359 H         1 UNK         0.0775 
    110 H110       29.5312  -42.4396  -50.8560 H         1 UNK         0.0840 
    111 H111       31.2705  -42.3110  -50.7836 H         1 UNK         0.0840 
    112 H112       30.4315  -47.2366  -51.1045 H         1 UNK         0.2987 
    113 H113       32.1934  -48.7509  -51.0860 H         1 UNK         0.0785 
    114 H114       29.9039  -50.7864  -50.9946 H         1 UNK         0.0798 
    115 H115       30.1943  -49.4610  -49.8855 H         1 UNK         0.0798 
    116 H116       31.3009  -50.8226  -49.9178 H         1 UNK         0.0798 
    117 H117       33.3357  -49.9147  -52.5562 H         1 UNK         0.3079 
    118 H118       33.9252  -52.8088  -53.0339 H         1 UNK         0.0794 
    119 H119       32.2769  -52.4371  -55.5881 H         1 UNK         0.0786 
    120 H120       32.2185  -53.8335  -54.5198 H         1 UNK         0.0786 
    121 H121       33.6840  -53.4816  -55.4183 H         1 UNK         0.0786 
    122 H122       33.8547  -50.5686  -55.0092 H         1 UNK         0.3032 
    123 H123       36.6077  -48.9843  -53.5243 H         1 UNK         0.1094 
    124 H124       37.7969  -49.1272  -55.7052 H         1 UNK         0.0794 
    125 H125       37.9453  -50.6439  -54.8348 H         1 UNK         0.0794 
    126 H126       36.8167  -50.5169  -56.1768 H         1 UNK         0.0794 
    127 H127       35.2947  -48.5714  -56.0393 H         1 UNK         0.3016 
@<TRIPOS>BOND
     1    1    2 1    
     2    1   67 1    
     3    1   68 1    
     4    1   69 1    
     5    2    3 2    
     6    2    4 am   BACKBONE|DICT|INTERRES
     7    4    5 1    
     8    4   70 1    
     9    5    6 1    
    10    5   65 1    
    11    5   71 1    
    12    6    7 1    
    13    6   72 1    
    14    6   73 1    
    15    7    8 1    
    16    8    9 1    
    17    8   74 1    
    18    8   75 1    
    19    9   10 ar   
    20    9   14 ar   
    21   10   11 ar   
    22   10   76 1    
    23   11   12 ar   
    24   11   48 1    
    25   12   13 ar   
    26   12   77 1    
    27   13   14 ar   
    28   13   15 1    
    29   14   78 1    
    30   15   16 1    
    31   15   79 1    
    32   15   80 1    
    33   16   17 1    
    34   17   18 1    
    35   17   81 1    
    36   17   82 1    
    37   18   19 1    
    38   18   22 1    
    39   18   83 1    
    40   19   20 am   BACKBONE|DICT|INTERRES
    41   19   21 2    
    42   20   84 1    
    43   20   85 1    
    44   22   23 am   BACKBONE|DICT|INTERRES
    45   22   86 1    
    46   23   24 2    
    47   23   25 1    
    48   25   26 1    
    49   25   27 1    
    50   25   87 1    
    51   26   88 1    
    52   26   89 1    
    53   26   90 1    
    54   27   28 am   BACKBONE|DICT|INTERRES
    55   27   91 1    
    56   28   29 2    
    57   28   30 1    
    58   30   31 1    
    59   30   32 1    
    60   30   92 1    
    61   31   93 1    
    62   31   94 1    
    63   31   95 1    
    64   32   33 am   BACKBONE|DICT|INTERRES
    65   32   96 1    
    66   33   34 2    
    67   33   35 1    
    68   35   36 1    
    69   35   37 1    
    70   35   97 1    
    71   36   98 1    
    72   36   99 1    
    73   36  100 1    
    74   37   38 am   BACKBONE|DICT|INTERRES
    75   37  101 1    
    76   38   39 2    
    77   38   40 1    
    78   40   41 1    
    79   40   42 1    
    80   40  102 1    
    81   41  103 1    
    82   41  104 1    
    83   41  105 1    
    84   42   43 am   BACKBONE|DICT|INTERRES
    85   42  106 1    
    86   43   44 2    
    87   43   45 1    
    88   45   46 1    
    89   45   49 1    
    90   45  107 1    
    91   46   47 1    
    92   46  108 1    
    93   46  109 1    
    94   47   48 1    
    95   48  110 1    
    96   48  111 1    
    97   49   50 am   BACKBONE|DICT|INTERRES
    98   49  112 1    
    99   50   51 2    
   100   50   52 1    
   101   52   53 1    
   102   52   54 1    
   103   52  113 1    
   104   53  114 1    
   105   53  115 1    
   106   53  116 1    
   107   54   55 am   BACKBONE|DICT|INTERRES
   108   54  117 1    
   109   55   56 2    
   110   55   57 1    
   111   57   58 1    
   112   57   59 1    
   113   57  118 1    
   114   58  119 1    
   115   58  120 1    
   116   58  121 1    
   117   59   60 am   BACKBONE|DICT|INTERRES
   118   59  122 1    
   119   60   61 2    
   120   60   62 1    
   121   62   63 1    
   122   62   64 1    
   123   62  123 1    
   124   63  124 1    
   125   63  125 1    
   126   63  126 1    
   127   64   65 am   BACKBONE|DICT|INTERRES
   128   64  127 1    
   129   65   66 2    
@<TRIPOS>SUBSTRUCTURE
     1 UNK         1 GROUP             0       ****    0 ROOT    
