@<TRIPOS>MOLECULE
3R134
127   129    1
SMALL
USER_CHARGES


@<TRIPOS>ATOM
      1 CA         33.3788  -41.2626  -59.2527 C.3       0 UNK        -0.1968 
      2 C          32.6268  -42.3535  -58.5045 C.2       0 UNK         0.4852 
      3 O          31.3951  -42.3494  -58.4927 O.2       0 UNK        -0.5359 
      4 N          33.3556  -43.2870  -57.8861 N.am      1 UNK        -0.4300 
      5 CA         32.8237  -44.4204  -57.1332 C.3       1 UNK         0.0863 
      6 C6         32.1853  -44.0153  -55.7769 C.3       11 UNK        -0.0953 
      7 S7         33.3224  -43.1930  -54.6026 S.3       11 UNK        -0.2369 
      8 C8         33.3969  -44.4083  -53.2370 C.3       11 UNK         0.0226 
      9 C9         32.0900  -44.6667  -52.4787 C.ar      11 UNK        -0.0699 
     10 C10        32.0874  -45.6480  -51.4818 C.ar      11 UNK        -0.0804 
     11 C11        30.9192  -45.9533  -50.7758 C.ar      11 UNK        -0.0871 
     12 C12        29.7370  -45.2672  -51.0703 C.ar      11 UNK        -0.1008 
     13 C13        29.7201  -44.2906  -52.0682 C.ar      11 UNK        -0.0735 
     14 C14        30.8978  -43.9818  -52.7509 C.ar      11 UNK        -0.0945 
     15 C15        28.4280  -43.5860  -52.4442 C.3       11 UNK         0.0169 
     16 S16        27.4747  -44.6003  -53.6158 S.3       11 UNK        -0.2669 
     17 C17        26.5199  -43.3357  -54.5208 C.3       11 UNK        -0.0850 
     18 CA         26.7936  -43.3171  -56.0495 C.3       10 UNK         0.0855 
     19 C          28.2068  -42.7823  -56.4350 C.2       10 UNK         0.5543 
     20 N          28.9299  -43.4091  -57.3566 N.am      10 UNK        -0.7343 
     21 O          28.6383  -41.7592  -55.9095 O.2       10 UNK        -0.5027 
     22 N          26.4281  -44.5953  -56.6809 N.am      10 UNK        -0.4495 
     23 C          25.9330  -44.7184  -57.9182 C.2       10 UNK         0.4903 
     24 O          25.6765  -43.7609  -58.6505 O.2       10 UNK        -0.4860 
     25 CA         25.6795  -46.1548  -58.4125 C.3       9 UNK         0.0227 
     26 CB         25.3553  -46.2233  -59.9204 C.3       9 UNK        -0.1964 
     27 N          26.7592  -47.0916  -58.0780 N.am      9 UNK        -0.4231 
     28 C          28.0509  -47.0232  -58.4466 C.2       9 UNK         0.5014 
     29 O          28.5310  -46.0701  -59.0617 O.2       9 UNK        -0.5270 
     30 CA         28.9710  -48.2069  -58.0733 C.3       8 UNK         0.0284 
     31 CB         30.2675  -47.7138  -57.3995 C.3       8 UNK        -0.1977 
     32 N          28.2921  -49.1782  -57.2064 N.am      8 UNK        -0.4342 
     33 C          27.5766  -50.2269  -57.6462 C.2       8 UNK         0.5039 
     34 O          27.5599  -50.5846  -58.8242 O.2       8 UNK        -0.5547 
     35 CA         26.6766  -50.9741  -56.6385 C.3       7 UNK         0.0281 
     36 CB         27.1301  -52.4249  -56.4083 C.3       7 UNK        -0.1963 
     37 N          26.5370  -50.2918  -55.3496 N.am      7 UNK        -0.4444 
     38 C          25.7721  -49.2078  -55.1532 C.2       7 UNK         0.5104 
     39 O          25.0765  -48.6998  -56.0325 O.2       7 UNK        -0.5100 
     40 CA         25.8519  -48.5321  -53.7711 C.3       6 UNK         0.0396 
     41 CB         24.7771  -49.0992  -52.8318 C.3       6 UNK        -0.1801 
     42 N          27.1685  -48.6416  -53.1316 N.am      6 UNK        -0.4747 
     43 C          28.3186  -48.2105  -53.6721 C.2       6 UNK         0.5012 
     44 O          28.3799  -47.6823  -54.7811 O.2       6 UNK        -0.5003 
     45 CA         29.6252  -48.4454  -52.8932 C.3       5 UNK         0.0782 
     46 C46        29.4167  -48.7622  -51.3852 C.3       11 UNK        -0.0868 
     47 S47        30.9885  -48.7096  -50.4596 S.3       11 UNK        -0.2515 
     48 C48        30.9301  -47.0463  -49.7165 C.3       11 UNK         0.0199 
     49 N          30.4683  -49.4331  -53.5769 N.am      5 UNK        -0.4607 
     50 C          30.1571  -50.7060  -53.8722 C.2       4 UNK         0.5031 
     51 O          29.0422  -51.1963  -53.6869 O.2       4 UNK        -0.5119 
     52 CA         31.2701  -51.5959  -54.4699 C.3       4 UNK         0.0263 
     53 CB         31.0738  -51.7838  -55.9835 C.3       4 UNK        -0.1967 
     54 N          32.6151  -51.0658  -54.2468 N.am      4 UNK        -0.4237 
     55 C          33.2358  -50.9715  -53.0628 C.2       3 UNK         0.4908 
     56 O          32.8231  -51.5066  -52.0338 O.2       3 UNK        -0.5102 
     57 CA         34.5232  -50.1194  -53.0079 C.3       3 UNK         0.0241 
     58 CB         35.7449  -51.0040  -52.7059 C.3       3 UNK        -0.1971 
     59 N          34.8001  -49.3216  -54.2137 N.am      3 UNK        -0.4139 
     60 C          34.0158  -48.3569  -54.7153 C.2       2 UNK         0.5016 
     61 O          32.9334  -48.0255  -54.2220 O.2       2 UNK        -0.5319 
     62 CA         34.4835  -47.7081  -56.0235 C.3       2 UNK         0.0286 
     63 CB         34.4527  -48.7121  -57.1922 C.3       2 UNK        -0.1963 
     64 N          33.5938  -46.5928  -56.3233 N.am      2 UNK        -0.4790 
     65 C          33.9239  -45.4881  -56.9968 C.2       1 UNK         0.5024 
     66 O          35.0377  -45.2969  -57.4946 O.2       1 UNK        -0.4888 
     67 H67        33.1192  -40.2847  -58.8483 H         1 UNK         0.0892 
     68 H68        33.1095  -41.2780  -60.3084 H         1 UNK         0.0892 
     69 H69        34.4589  -41.3856  -59.1755 H         1 UNK         0.0892 
     70 H70        34.3662  -43.2910  -57.9557 H         1 UNK         0.3107 
     71 H71        32.0434  -44.8760  -57.7469 H         1 UNK         0.0773 
     72 H72        31.7231  -44.8834  -55.3048 H         1 UNK         0.0680 
     73 H73        31.3607  -43.3253  -55.9545 H         1 UNK         0.0680 
     74 H74        33.7681  -45.3524  -53.6370 H         1 UNK         0.0650 
     75 H75        34.1452  -44.0622  -52.5230 H         1 UNK         0.0650 
     76 H76        32.9958  -46.1946  -51.2670 H         1 UNK         0.1397 
     77 H77        28.8233  -45.5086  -50.5443 H         1 UNK         0.1363 
     78 H78        30.8598  -43.2182  -53.5133 H         1 UNK         0.1355 
     79 H79        28.6545  -42.6146  -52.8869 H         1 UNK         0.0707 
     80 H80        27.8261  -43.3913  -51.5554 H         1 UNK         0.0707 
     81 H81        26.6936  -42.3474  -54.0922 H         1 UNK         0.1034 
     82 H82        25.4616  -43.5365  -54.3480 H         1 UNK         0.1034 
     83 H83        26.1146  -42.5608  -56.4478 H         1 UNK         0.0482 
     84 H84        29.8210  -43.0137  -57.6438 H         1 UNK         0.3460 
     85 H85        28.5790  -44.2353  -57.8219 H         1 UNK         0.3460 
     86 H86        26.6523  -45.4260  -56.1512 H         1 UNK         0.2989 
     87 H87        24.7985  -46.5060  -57.8735 H         1 UNK         0.0559 
     88 H88        26.1789  -45.8471  -60.5284 H         1 UNK         0.0848 
     89 H89        24.4751  -45.6254  -60.1599 H         1 UNK         0.0848 
     90 H90        25.1455  -47.2454  -60.2354 H         1 UNK         0.0848 
     91 H91        26.4668  -47.8888  -57.5261 H         1 UNK         0.3144 
     92 H92        29.2542  -48.6975  -59.0066 H         1 UNK         0.0727 
     93 H93        30.8708  -48.5400  -57.0266 H         1 UNK         0.0790 
     94 H94        30.0673  -47.0407  -56.5660 H         1 UNK         0.0790 
     95 H95        30.8828  -47.1626  -58.1114 H         1 UNK         0.0790 
     96 H96        28.2385  -48.9096  -56.2266 H         1 UNK         0.3215 
     97 H97        25.6893  -51.0211  -57.1039 H         1 UNK         0.0863 
     98 H98        26.3363  -53.0094  -55.9428 H         1 UNK         0.0808 
     99 H99        27.9983  -52.4840  -55.7566 H         1 UNK         0.0808 
    100 H100       27.3837  -52.9193  -57.3472 H         1 UNK         0.0808 
    101 H101       27.1290  -50.6167  -54.5921 H         1 UNK         0.3118 
    102 H102       25.6507  -47.4686  -53.9171 H         1 UNK         0.0546 
    103 H103       23.7846  -49.0088  -53.2757 H         1 UNK         0.0828 
    104 H104       24.7544  -48.5625  -51.8832 H         1 UNK         0.0828 
    105 H105       24.9430  -50.1558  -52.6178 H         1 UNK         0.0828 
    106 H106       27.1994  -49.1066  -52.2360 H         1 UNK         0.3005 
    107 H107       30.1650  -47.4999  -52.9665 H         1 UNK         0.1257 
    108 H108       28.9815  -49.7540  -51.2519 H         1 UNK         0.0775 
    109 H109       28.7213  -48.0571  -50.9267 H         1 UNK         0.0775 
    110 H110       30.0568  -46.9690  -49.0669 H         1 UNK         0.0840 
    111 H111       31.8004  -46.9166  -49.0716 H         1 UNK         0.0840 
    112 H112       31.4005  -49.0952  -53.8014 H         1 UNK         0.2987 
    113 H113       31.2068  -52.5729  -53.9864 H         1 UNK         0.0785 
    114 H114       30.1452  -52.3073  -56.1991 H         1 UNK         0.0798 
    115 H115       31.8767  -52.3800  -56.4177 H         1 UNK         0.0798 
    116 H116       31.0411  -50.8309  -56.5115 H         1 UNK         0.0798 
    117 H117       33.0490  -50.6066  -55.0327 H         1 UNK         0.3079 
    118 H118       34.3946  -49.4192  -52.1796 H         1 UNK         0.0794 
    119 H119       35.9371  -51.7142  -53.5111 H         1 UNK         0.0786 
    120 H120       35.5955  -51.5809  -51.7919 H         1 UNK         0.0786 
    121 H121       36.6444  -50.4051  -52.5620 H         1 UNK         0.0786 
    122 H122       35.6621  -49.5365  -54.6950 H         1 UNK         0.3032 
    123 H123       35.5008  -47.3382  -55.8737 H         1 UNK         0.1094 
    124 H124       34.7700  -48.2427  -58.1237 H         1 UNK         0.0794 
    125 H125       35.1243  -49.5531  -57.0165 H         1 UNK         0.0794 
    126 H126       33.4522  -49.1170  -57.3503 H         1 UNK         0.0794 
    127 H127       32.6966  -46.6562  -55.8571 H         1 UNK         0.3016 
@<TRIPOS>BOND
     1    1    2 1    
     2    1   67 1    
     3    1   68 1    
     4    1   69 1    
     5    2    3 2    
     6    2    4 am   BACKBONE|DICT|INTERRES
     7    4    5 1    
     8    4   70 1    
     9    5    6 1    
    10    5   65 1    
    11    5   71 1    
    12    6    7 1    
    13    6   72 1    
    14    6   73 1    
    15    7    8 1    
    16    8    9 1    
    17    8   74 1    
    18    8   75 1    
    19    9   10 ar   
    20    9   14 ar   
    21   10   11 ar   
    22   10   76 1    
    23   11   12 ar   
    24   11   48 1    
    25   12   13 ar   
    26   12   77 1    
    27   13   14 ar   
    28   13   15 1    
    29   14   78 1    
    30   15   16 1    
    31   15   79 1    
    32   15   80 1    
    33   16   17 1    
    34   17   18 1    
    35   17   81 1    
    36   17   82 1    
    37   18   19 1    
    38   18   22 1    
    39   18   83 1    
    40   19   20 am   BACKBONE|DICT|INTERRES
    41   19   21 2    
    42   20   84 1    
    43   20   85 1    
    44   22   23 am   BACKBONE|DICT|INTERRES
    45   22   86 1    
    46   23   24 2    
    47   23   25 1    
    48   25   26 1    
    49   25   27 1    
    50   25   87 1    
    51   26   88 1    
    52   26   89 1    
    53   26   90 1    
    54   27   28 am   BACKBONE|DICT|INTERRES
    55   27   91 1    
    56   28   29 2    
    57   28   30 1    
    58   30   31 1    
    59   30   32 1    
    60   30   92 1    
    61   31   93 1    
    62   31   94 1    
    63   31   95 1    
    64   32   33 am   BACKBONE|DICT|INTERRES
    65   32   96 1    
    66   33   34 2    
    67   33   35 1    
    68   35   36 1    
    69   35   37 1    
    70   35   97 1    
    71   36   98 1    
    72   36   99 1    
    73   36  100 1    
    74   37   38 am   BACKBONE|DICT|INTERRES
    75   37  101 1    
    76   38   39 2    
    77   38   40 1    
    78   40   41 1    
    79   40   42 1    
    80   40  102 1    
    81   41  103 1    
    82   41  104 1    
    83   41  105 1    
    84   42   43 am   BACKBONE|DICT|INTERRES
    85   42  106 1    
    86   43   44 2    
    87   43   45 1    
    88   45   46 1    
    89   45   49 1    
    90   45  107 1    
    91   46   47 1    
    92   46  108 1    
    93   46  109 1    
    94   47   48 1    
    95   48  110 1    
    96   48  111 1    
    97   49   50 am   BACKBONE|DICT|INTERRES
    98   49  112 1    
    99   50   51 2    
   100   50   52 1    
   101   52   53 1    
   102   52   54 1    
   103   52  113 1    
   104   53  114 1    
   105   53  115 1    
   106   53  116 1    
   107   54   55 am   BACKBONE|DICT|INTERRES
   108   54  117 1    
   109   55   56 2    
   110   55   57 1    
   111   57   58 1    
   112   57   59 1    
   113   57  118 1    
   114   58  119 1    
   115   58  120 1    
   116   58  121 1    
   117   59   60 am   BACKBONE|DICT|INTERRES
   118   59  122 1    
   119   60   61 2    
   120   60   62 1    
   121   62   63 1    
   122   62   64 1    
   123   62  123 1    
   124   63  124 1    
   125   63  125 1    
   126   63  126 1    
   127   64   65 am   BACKBONE|DICT|INTERRES
   128   64  127 1    
   129   65   66 2    
@<TRIPOS>SUBSTRUCTURE
     1 UNK         1 GROUP             0       ****    0 ROOT    
