@<TRIPOS>MOLECULE
3R134
127   129    1
SMALL
USER_CHARGES


@<TRIPOS>ATOM
      1 CA         34.5054  -44.2184  -47.5049 C.3       0 UNK        -0.1968 
      2 C          34.7030  -44.5595  -48.9748 C.2       0 UNK         0.4852 
      3 O          35.8429  -44.7008  -49.4215 O.2       0 UNK        -0.5359 
      4 N          33.6037  -44.6830  -49.7293 N.am      1 UNK        -0.4300 
      5 CA         33.5973  -45.0523  -51.1490 C.3       1 UNK         0.0863 
      6 C6         32.2444  -44.7258  -51.8320 C.3       11 UNK        -0.0953 
      7 S7         31.7659  -42.9758  -51.6580 S.3       11 UNK        -0.2369 
      8 C8         32.7147  -42.1974  -53.0023 C.3       11 UNK         0.0226 
      9 C9         32.1701  -42.5414  -54.3816 C.ar      11 UNK        -0.0699 
     10 C10        32.9297  -43.3007  -55.2772 C.ar      11 UNK        -0.0804 
     11 C11        32.4561  -43.5556  -56.5678 C.ar      11 UNK        -0.0871 
     12 C12        31.2127  -43.0458  -56.9551 C.ar      11 UNK        -0.1008 
     13 C13        30.4212  -42.3183  -56.0568 C.ar      11 UNK        -0.0735 
     14 C14        30.9180  -42.0618  -54.7760 C.ar      11 UNK        -0.0945 
     15 C15        29.0392  -41.7737  -56.4253 C.3       11 UNK         0.0169 
     16 S16        28.2086  -42.5935  -57.8319 S.3       11 UNK        -0.2669 
     17 C17        28.0711  -44.3197  -57.2410 C.3       11 UNK        -0.0850 
     18 CA         26.6537  -44.7253  -56.7646 C.3       10 UNK         0.0855 
     19 C          26.3027  -44.1278  -55.3697 C.2       10 UNK         0.5543 
     20 N          25.2050  -43.3964  -55.2182 N.am      10 UNK        -0.7343 
     21 O          27.0289  -44.3447  -54.4046 O.2       10 UNK        -0.5027 
     22 N          25.6455  -44.4714  -57.8103 N.am      10 UNK        -0.4495 
     23 C          24.4878  -45.1143  -58.0201 C.2       10 UNK         0.4903 
     24 O          23.6622  -44.6853  -58.8253 O.2       10 UNK        -0.4860 
     25 CA         24.2002  -46.4347  -57.2687 C.3       9 UNK         0.0227 
     26 CB         22.7308  -46.8903  -57.3963 C.3       9 UNK        -0.1964 
     27 N          25.1099  -47.5105  -57.6820 N.am      9 UNK        -0.4231 
     28 C          25.2986  -48.0042  -58.9185 C.2       9 UNK         0.5014 
     29 O          24.6572  -47.6499  -59.9085 O.2       9 UNK        -0.5270 
     30 CA         26.3939  -49.0739  -59.1039 C.3       8 UNK         0.0284 
     31 CB         27.5524  -48.5228  -59.9530 C.3       8 UNK        -0.1977 
     32 N          26.9217  -49.5877  -57.8371 N.am      8 UNK        -0.4342 
     33 C          26.2829  -50.4795  -57.0651 C.2       8 UNK         0.5039 
     34 O          25.2197  -51.0127  -57.3849 O.2       8 UNK        -0.5547 
     35 CA         26.9056  -50.8325  -55.7012 C.3       7 UNK         0.0281 
     36 CB         27.5966  -52.2038  -55.7764 C.3       7 UNK        -0.1963 
     37 N          27.8508  -49.8395  -55.1783 N.am      7 UNK        -0.4444 
     38 C          27.5580  -48.5645  -54.8817 C.2       7 UNK         0.5104 
     39 O          26.4387  -48.0703  -55.0218 O.2       7 UNK        -0.5100 
     40 CA         28.7282  -47.6739  -54.4246 C.3       6 UNK         0.0396 
     41 CB         29.0169  -47.8698  -52.9290 C.3       6 UNK        -0.1801 
     42 N          29.9565  -47.8933  -55.1937 N.am      6 UNK        -0.4747 
     43 C          30.0675  -47.7406  -56.5223 C.2       6 UNK         0.5012 
     44 O          29.1342  -47.4041  -57.2493 O.2       6 UNK        -0.5003 
     45 CA         31.4285  -48.0931  -57.1464 C.3       5 UNK         0.0782 
     46 C46        32.4799  -46.9711  -56.9452 C.3       11 UNK        -0.0868 
     47 S47        32.4190  -45.7506  -58.2955 S.3       11 UNK        -0.2515 
     48 C48        33.3067  -44.3379  -57.5616 C.3       11 UNK         0.0199 
     49 N          31.8917  -49.3832  -56.6349 N.am      5 UNK        -0.4607 
     50 C          31.4442  -50.5690  -57.0713 C.2       4 UNK         0.5031 
     51 O          30.6508  -50.6994  -58.0032 O.2       4 UNK        -0.5119 
     52 CA         31.9562  -51.8256  -56.3444 C.3       4 UNK         0.0263 
     53 CB         33.1877  -52.3970  -57.0650 C.3       4 UNK        -0.1967 
     54 N          32.2841  -51.5923  -54.9355 N.am      4 UNK        -0.4237 
     55 C          31.3863  -51.2812  -53.9902 C.2       3 UNK         0.4908 
     56 O          30.1788  -51.1780  -54.1972 O.2       3 UNK        -0.5102 
     57 CA         31.9349  -50.9778  -52.5879 C.3       3 UNK         0.0241 
     58 CB         32.1444  -52.2783  -51.7960 C.3       3 UNK        -0.1971 
     59 N          33.1748  -50.1930  -52.5900 N.am      3 UNK        -0.4139 
     60 C          33.3166  -48.9843  -53.1514 C.2       2 UNK         0.5016 
     61 O          32.4459  -48.4267  -53.8254 O.2       2 UNK        -0.5319 
     62 CA         34.6650  -48.2778  -52.9445 C.3       2 UNK         0.0286 
     63 CB         35.4853  -48.2915  -54.2443 C.3       2 UNK        -0.1963 
     64 N          34.4548  -46.8934  -52.5180 N.am      2 UNK        -0.4790 
     65 C          33.9306  -46.5453  -51.3348 C.2       1 UNK         0.5024 
     66 O          33.6747  -47.3535  -50.4373 O.2       1 UNK        -0.4888 
     67 H67        33.4515  -44.1074  -47.2500 H         1 UNK         0.0892 
     68 H68        34.9248  -45.0050  -46.8780 H         1 UNK         0.0892 
     69 H69        35.0121  -43.2839  -47.2650 H         1 UNK         0.0892 
     70 H70        32.6935  -44.5678  -49.3077 H         1 UNK         0.3107 
     71 H71        34.3808  -44.4750  -51.6444 H         1 UNK         0.0773 
     72 H72        31.4442  -45.3298  -51.3996 H         1 UNK         0.0680 
     73 H73        32.2687  -44.9810  -52.8932 H         1 UNK         0.0680 
     74 H74        33.7657  -42.4754  -52.9140 H         1 UNK         0.0650 
     75 H75        32.6769  -41.1152  -52.8703 H         1 UNK         0.0650 
     76 H76        33.9005  -43.6709  -54.9776 H         1 UNK         0.1397 
     77 H77        30.8641  -43.2325  -57.9609 H         1 UNK         0.1363 
     78 H78        30.3295  -41.4813  -54.0783 H         1 UNK         0.1355 
     79 H79        29.1395  -40.7130  -56.6585 H         1 UNK         0.0707 
     80 H80        28.3790  -41.8373  -55.5588 H         1 UNK         0.0707 
     81 H81        28.3611  -44.9646  -58.0719 H         1 UNK         0.1034 
     82 H82        28.8088  -44.5217  -56.4621 H         1 UNK         0.1034 
     83 H83        26.7123  -45.7984  -56.5936 H         1 UNK         0.0482 
     84 H84        24.6108  -43.1910  -56.0054 H         1 UNK         0.3460 
     85 H85        24.9860  -43.0204  -54.3091 H         1 UNK         0.3460 
     86 H86        25.8210  -43.6334  -58.3454 H         1 UNK         0.2989 
     87 H87        24.3827  -46.2571  -56.2085 H         1 UNK         0.0559 
     88 H88        22.4529  -47.0948  -58.4308 H         1 UNK         0.0848 
     89 H89        22.0520  -46.1219  -57.0245 H         1 UNK         0.0848 
     90 H90        22.5455  -47.7944  -56.8164 H         1 UNK         0.0848 
     91 H91        25.6949  -47.8752  -56.9369 H         1 UNK         0.3144 
     92 H92        25.9465  -49.9062  -59.6516 H         1 UNK         0.0727 
     93 H93        28.3637  -49.2457  -60.0431 H         1 UNK         0.0790 
     94 H94        27.2133  -48.2881  -60.9628 H         1 UNK         0.0790 
     95 H95        27.9628  -47.6046  -59.5330 H         1 UNK         0.0790 
     96 H96        27.7838  -49.1725  -57.5029 H         1 UNK         0.3215 
     97 H97        26.0830  -50.9040  -54.9866 H         1 UNK         0.0863 
     98 H98        26.9215  -52.9648  -56.1706 H         1 UNK         0.0808 
     99 H99        27.9175  -52.5407  -54.7906 H         1 UNK         0.0808 
    100 H100       28.4735  -52.1762  -56.4246 H         1 UNK         0.0808 
    101 H101       28.7900  -50.1777  -54.9764 H         1 UNK         0.3118 
    102 H102       28.4339  -46.6349  -54.5797 H         1 UNK         0.0546 
    103 H103       29.8089  -47.2028  -52.5875 H         1 UNK         0.0828 
    104 H104       29.3222  -48.8926  -52.7078 H         1 UNK         0.0828 
    105 H105       28.1306  -47.6555  -52.3305 H         1 UNK         0.0828 
    106 H106       30.7859  -48.1652  -54.6687 H         1 UNK         0.3005 
    107 H107       31.2612  -48.2162  -58.2197 H         1 UNK         0.1257 
    108 H108       33.4863  -47.3918  -56.9553 H         1 UNK         0.0775 
    109 H109       32.3724  -46.4754  -55.9777 H         1 UNK         0.0775 
    110 H110       34.2284  -44.6953  -57.0993 H         1 UNK         0.0840 
    111 H111       33.6089  -43.6629  -58.3634 H         1 UNK         0.0840 
    112 H112       32.4771  -49.3516  -55.8109 H         1 UNK         0.2987 
    113 H113       31.1596  -52.5719  -56.3830 H         1 UNK         0.0785 
    114 H114       32.9643  -52.6052  -58.1125 H         1 UNK         0.0798 
    115 H115       33.5131  -53.3344  -56.6134 H         1 UNK         0.0798 
    116 H116       34.0283  -51.7022  -57.0433 H         1 UNK         0.0798 
    117 H117       33.2574  -51.6514  -54.6740 H         1 UNK         0.3079 
    118 H118       31.1809  -50.3840  -52.0677 H         1 UNK         0.0794 
    119 H119       32.4242  -52.0730  -50.7624 H         1 UNK         0.0786 
    120 H120       32.9225  -52.9022  -52.2375 H         1 UNK         0.0786 
    121 H121       31.2281  -52.8701  -51.7689 H         1 UNK         0.0786 
    122 H122       33.9452  -50.5739  -52.0592 H         1 UNK         0.3032 
    123 H123       35.2308  -48.7960  -52.1667 H         1 UNK         0.1094 
    124 H124       34.9781  -47.7587  -55.0491 H         1 UNK         0.0794 
    125 H125       36.4621  -47.8290  -54.1010 H         1 UNK         0.0794 
    126 H126       35.6594  -49.3123  -54.5873 H         1 UNK         0.0794 
    127 H127       34.6050  -46.1805  -53.2164 H         1 UNK         0.3016 
@<TRIPOS>BOND
     1    1    2 1    
     2    1   67 1    
     3    1   68 1    
     4    1   69 1    
     5    2    3 2    
     6    2    4 am   BACKBONE|DICT|INTERRES
     7    4    5 1    
     8    4   70 1    
     9    5    6 1    
    10    5   65 1    
    11    5   71 1    
    12    6    7 1    
    13    6   72 1    
    14    6   73 1    
    15    7    8 1    
    16    8    9 1    
    17    8   74 1    
    18    8   75 1    
    19    9   10 ar   
    20    9   14 ar   
    21   10   11 ar   
    22   10   76 1    
    23   11   12 ar   
    24   11   48 1    
    25   12   13 ar   
    26   12   77 1    
    27   13   14 ar   
    28   13   15 1    
    29   14   78 1    
    30   15   16 1    
    31   15   79 1    
    32   15   80 1    
    33   16   17 1    
    34   17   18 1    
    35   17   81 1    
    36   17   82 1    
    37   18   19 1    
    38   18   22 1    
    39   18   83 1    
    40   19   20 am   BACKBONE|DICT|INTERRES
    41   19   21 2    
    42   20   84 1    
    43   20   85 1    
    44   22   23 am   BACKBONE|DICT|INTERRES
    45   22   86 1    
    46   23   24 2    
    47   23   25 1    
    48   25   26 1    
    49   25   27 1    
    50   25   87 1    
    51   26   88 1    
    52   26   89 1    
    53   26   90 1    
    54   27   28 am   BACKBONE|DICT|INTERRES
    55   27   91 1    
    56   28   29 2    
    57   28   30 1    
    58   30   31 1    
    59   30   32 1    
    60   30   92 1    
    61   31   93 1    
    62   31   94 1    
    63   31   95 1    
    64   32   33 am   BACKBONE|DICT|INTERRES
    65   32   96 1    
    66   33   34 2    
    67   33   35 1    
    68   35   36 1    
    69   35   37 1    
    70   35   97 1    
    71   36   98 1    
    72   36   99 1    
    73   36  100 1    
    74   37   38 am   BACKBONE|DICT|INTERRES
    75   37  101 1    
    76   38   39 2    
    77   38   40 1    
    78   40   41 1    
    79   40   42 1    
    80   40  102 1    
    81   41  103 1    
    82   41  104 1    
    83   41  105 1    
    84   42   43 am   BACKBONE|DICT|INTERRES
    85   42  106 1    
    86   43   44 2    
    87   43   45 1    
    88   45   46 1    
    89   45   49 1    
    90   45  107 1    
    91   46   47 1    
    92   46  108 1    
    93   46  109 1    
    94   47   48 1    
    95   48  110 1    
    96   48  111 1    
    97   49   50 am   BACKBONE|DICT|INTERRES
    98   49  112 1    
    99   50   51 2    
   100   50   52 1    
   101   52   53 1    
   102   52   54 1    
   103   52  113 1    
   104   53  114 1    
   105   53  115 1    
   106   53  116 1    
   107   54   55 am   BACKBONE|DICT|INTERRES
   108   54  117 1    
   109   55   56 2    
   110   55   57 1    
   111   57   58 1    
   112   57   59 1    
   113   57  118 1    
   114   58  119 1    
   115   58  120 1    
   116   58  121 1    
   117   59   60 am   BACKBONE|DICT|INTERRES
   118   59  122 1    
   119   60   61 2    
   120   60   62 1    
   121   62   63 1    
   122   62   64 1    
   123   62  123 1    
   124   63  124 1    
   125   63  125 1    
   126   63  126 1    
   127   64   65 am   BACKBONE|DICT|INTERRES
   128   64  127 1    
   129   65   66 2    
@<TRIPOS>SUBSTRUCTURE
     1 UNK         1 GROUP             0       ****    0 ROOT    
