@<TRIPOS>MOLECULE
3R134
127   129    1
SMALL
USER_CHARGES


@<TRIPOS>ATOM
      1 CA         36.4512  -47.6746  -53.0293 C.3       0 UNK        -0.1968 
      2 C          34.9784  -47.3260  -53.1784 C.2       0 UNK         0.4852 
      3 O          34.2757  -47.9820  -53.9479 O.2       0 UNK        -0.5359 
      4 N          34.5118  -46.3141  -52.4321 N.am      1 UNK        -0.4300 
      5 CA         33.1447  -45.7712  -52.4278 C.3       1 UNK         0.0863 
      6 C6         33.0278  -44.6523  -51.3565 C.3       11 UNK        -0.0953 
      7 S7         31.3976  -43.8381  -51.2042 S.3       11 UNK        -0.2369 
      8 C8         31.6466  -42.2814  -52.1132 C.3       11 UNK         0.0226 
      9 C9         31.4073  -42.4684  -53.6024 C.ar      11 UNK        -0.0699 
     10 C10        32.4659  -42.7919  -54.4552 C.ar      11 UNK        -0.0804 
     11 C11        32.2373  -42.9978  -55.8185 C.ar      11 UNK        -0.0871 
     12 C12        30.9480  -42.8280  -56.3346 C.ar      11 UNK        -0.1008 
     13 C13        29.8800  -42.5091  -55.4910 C.ar      11 UNK        -0.0735 
     14 C14        30.1174  -42.3310  -54.1250 C.ar      11 UNK        -0.0945 
     15 C15        28.4689  -42.3611  -56.0454 C.3       11 UNK         0.0169 
     16 S16        27.5763  -43.9507  -56.0555 S.3       11 UNK        -0.2669 
     17 C17        28.1603  -44.7060  -57.6151 C.3       11 UNK        -0.0850 
     18 CA         27.0010  -45.0204  -58.5978 C.3       10 UNK         0.0855 
     19 C          27.5420  -45.4334  -59.9969 C.2       10 UNK         0.5543 
     20 N          28.0226  -44.4719  -60.7745 N.am      10 UNK        -0.7343 
     21 O          27.5487  -46.6012  -60.3822 O.2       10 UNK        -0.5027 
     22 N          26.0746  -46.0036  -58.0221 N.am      10 UNK        -0.4495 
     23 C          24.8634  -46.3088  -58.5039 C.2       10 UNK         0.4903 
     24 O          24.3527  -45.7698  -59.4868 O.2       10 UNK        -0.4860 
     25 CA         24.0655  -47.3689  -57.7249 C.3       9 UNK         0.0227 
     26 CB         24.5463  -48.7877  -58.0712 C.3       9 UNK        -0.1964 
     27 N          24.1477  -47.1541  -56.2783 N.am      9 UNK        -0.4231 
     28 C          23.5760  -46.1347  -55.6231 C.2       9 UNK         0.5014 
     29 O          22.8054  -45.3326  -56.1527 O.2       9 UNK        -0.5270 
     30 CA         23.9315  -45.9447  -54.1360 C.3       8 UNK         0.0284 
     31 CB         22.9729  -46.7337  -53.2217 C.3       8 UNK        -0.1977 
     32 N          25.3437  -46.2034  -53.8146 N.am      8 UNK        -0.4342 
     33 C          26.0035  -47.3689  -53.8210 C.2       8 UNK         0.5039 
     34 O          25.4771  -48.4603  -54.0540 O.2       8 UNK        -0.5547 
     35 CA         27.5124  -47.2872  -53.5304 C.3       7 UNK         0.0281 
     36 CB         27.7611  -47.4594  -52.0232 C.3       7 UNK        -0.1963 
     37 N          28.3149  -48.2640  -54.2790 N.am      7 UNK        -0.4444 
     38 C          28.2845  -48.4441  -55.6072 C.2       7 UNK         0.5104 
     39 O          27.5644  -47.8026  -56.3741 O.2       7 UNK        -0.5100 
     40 CA         29.2522  -49.5012  -56.1654 C.3       6 UNK         0.0396 
     41 CB         28.7005  -50.2123  -57.4197 C.3       6 UNK        -0.1801 
     42 N          30.5754  -48.9135  -56.4009 N.am      6 UNK        -0.4747 
     43 C          30.9247  -47.9911  -57.3146 C.2       6 UNK         0.5012 
     44 O          30.1911  -47.5841  -58.2136 O.2       6 UNK        -0.5003 
     45 CA         32.3459  -47.4030  -57.2038 C.3       5 UNK         0.0782 
     46 C46        32.2823  -46.0565  -56.4502 C.3       11 UNK        -0.0868 
     47 S47        33.8781  -45.1721  -56.3818 S.3       11 UNK        -0.2515 
     48 C48        33.3727  -43.4512  -56.7280 C.3       11 UNK         0.0199 
     49 N          33.2761  -48.3497  -56.5835 N.am      5 UNK        -0.4607 
     50 C          33.7785  -49.4230  -57.2060 C.2       4 UNK         0.5031 
     51 O          33.5883  -49.6814  -58.3947 O.2       4 UNK        -0.5119 
     52 CA         34.5990  -50.3891  -56.3442 C.3       4 UNK         0.0263 
     53 CB         36.0252  -49.8597  -56.1197 C.3       4 UNK        -0.1967 
     54 N          33.9325  -50.6403  -55.0606 N.am      4 UNK        -0.4237 
     55 C          32.9837  -51.5747  -54.9013 C.2       3 UNK         0.4908 
     56 O          32.5757  -52.2871  -55.8193 O.2       3 UNK        -0.5102 
     57 CA         32.3993  -51.7986  -53.4994 C.3       3 UNK         0.0241 
     58 CB         33.1734  -52.9228  -52.7897 C.3       3 UNK        -0.1971 
     59 N          32.4021  -50.6137  -52.6371 N.am      3 UNK        -0.4139 
     60 C          31.3001  -49.9160  -52.3291 C.2       2 UNK         0.5016 
     61 O          30.2216  -50.0271  -52.9144 O.2       2 UNK        -0.5319 
     62 CA         31.4086  -48.9584  -51.1303 C.3       2 UNK         0.0286 
     63 CB         31.8557  -49.6910  -49.8523 C.3       2 UNK        -0.1963 
     64 N          32.2959  -47.8266  -51.3842 N.am      2 UNK        -0.4790 
     65 C          32.0554  -46.8563  -52.2778 C.2       1 UNK         0.5024 
     66 O          31.0496  -46.8079  -52.9845 O.2       1 UNK        -0.4888 
     67 H67        36.9976  -47.3753  -53.9231 H         1 UNK         0.0892 
     68 H68        36.9033  -47.1776  -52.1714 H         1 UNK         0.0892 
     69 H69        36.5723  -48.7496  -52.8989 H         1 UNK         0.0892 
     70 H70        35.1595  -45.8369  -51.8217 H         1 UNK         0.3107 
     71 H71        32.9929  -45.3182  -53.4076 H         1 UNK         0.0773 
     72 H72        33.7832  -43.8878  -51.5430 H         1 UNK         0.0680 
     73 H73        33.2673  -45.0615  -50.3733 H         1 UNK         0.0680 
     74 H74        30.9508  -41.5374  -51.7226 H         1 UNK         0.0650 
     75 H75        32.6456  -41.8850  -51.9264 H         1 UNK         0.0650 
     76 H76        33.4620  -42.9196  -54.0541 H         1 UNK         0.1397 
     77 H77        30.7728  -42.9739  -57.3907 H         1 UNK         0.1363 
     78 H78        29.2945  -42.0936  -53.4645 H         1 UNK         0.1355 
     79 H79        28.4916  -41.9338  -57.0490 H         1 UNK         0.0707 
     80 H80        27.9073  -41.6540  -55.4330 H         1 UNK         0.0707 
     81 H81        28.7107  -45.6143  -57.3696 H         1 UNK         0.1034 
     82 H82        28.8832  -44.0425  -58.0885 H         1 UNK         0.1034 
     83 H83        26.4284  -44.1022  -58.7438 H         1 UNK         0.0482 
     84 H84        28.3845  -44.7152  -61.6833 H         1 UNK         0.3460 
     85 H85        28.0152  -43.5074  -60.4817 H         1 UNK         0.3460 
     86 H86        26.4580  -46.5683  -57.2679 H         1 UNK         0.2989 
     87 H87        23.0176  -47.2867  -58.0211 H         1 UNK         0.0559 
     88 H88        24.4741  -48.9710  -59.1441 H         1 UNK         0.0848 
     89 H89        23.9422  -49.5447  -57.5712 H         1 UNK         0.0848 
     90 H90        25.5864  -48.9466  -57.7849 H         1 UNK         0.0848 
     91 H91        24.7509  -47.7725  -55.7419 H         1 UNK         0.3144 
     92 H92        23.7808  -44.8857  -53.9197 H         1 UNK         0.0727 
     93 H93        23.1957  -46.5601  -52.1690 H         1 UNK         0.0790 
     94 H94        23.0219  -47.8076  -53.4032 H         1 UNK         0.0790 
     95 H95        21.9396  -46.4272  -53.3896 H         1 UNK         0.0790 
     96 H96        25.8883  -45.3685  -53.6431 H         1 UNK         0.3215 
     97 H97        27.8662  -46.2981  -53.8293 H         1 UNK         0.0863 
     98 H98        28.7783  -47.1783  -51.7591 H         1 UNK         0.0808 
     99 H99        27.5958  -48.4886  -51.7021 H         1 UNK         0.0808 
    100 H100       27.0984  -46.8226  -51.4354 H         1 UNK         0.0808 
    101 H101       28.9580  -48.8357  -53.7359 H         1 UNK         0.3118 
    102 H102       29.3866  -50.2684  -55.4022 H         1 UNK         0.0546 
    103 H103       28.4779  -49.5161  -58.2288 H         1 UNK         0.0828 
    104 H104       27.7721  -50.7342  -57.1861 H         1 UNK         0.0828 
    105 H105       29.4053  -50.9526  -57.7975 H         1 UNK         0.0828 
    106 H106       31.2733  -49.1465  -55.7091 H         1 UNK         0.3005 
    107 H107       32.6892  -47.2047  -58.2220 H         1 UNK         0.1257 
    108 H108       31.5476  -45.4138  -56.9363 H         1 UNK         0.0775 
    109 H109       31.9273  -46.2003  -55.4291 H         1 UNK         0.0775 
    110 H110       34.2322  -42.7929  -56.5943 H         1 UNK         0.0840 
    111 H111       33.0854  -43.3701  -57.7775 H         1 UNK         0.0840 
    112 H112       33.5380  -48.1730  -55.6147 H         1 UNK         0.2987 
    113 H113       34.6876  -51.3318  -56.8894 H         1 UNK         0.0785 
    114 H114       36.5944  -50.5131  -55.4586 H         1 UNK         0.0798 
    115 H115       36.0296  -48.8585  -55.6916 H         1 UNK         0.0798 
    116 H116       36.5663  -49.8036  -57.0650 H         1 UNK         0.0798 
    117 H117       34.1514  -50.0020  -54.3040 H         1 UNK         0.3079 
    118 H118       31.3739  -52.1494  -53.6385 H         1 UNK         0.0794 
    119 H119       33.1718  -53.8367  -53.3858 H         1 UNK         0.0786 
    120 H120       32.7232  -53.1667  -51.8271 H         1 UNK         0.0786 
    121 H121       34.2149  -52.6504  -52.6139 H         1 UNK         0.0786 
    122 H122       33.2515  -50.4206  -52.1271 H         1 UNK         0.3032 
    123 H123       30.4083  -48.5652  -50.9435 H         1 UNK         0.1094 
    124 H124       31.7761  -49.0422  -48.9798 H         1 UNK         0.0794 
    125 H125       31.2269  -50.5620  -49.6616 H         1 UNK         0.0794 
    126 H126       32.8871  -50.0397  -49.9128 H         1 UNK         0.0794 
    127 H127       33.1605  -47.7924  -50.8643 H         1 UNK         0.3016 
@<TRIPOS>BOND
     1    1    2 1    
     2    1   67 1    
     3    1   68 1    
     4    1   69 1    
     5    2    3 2    
     6    2    4 am   BACKBONE|DICT|INTERRES
     7    4    5 1    
     8    4   70 1    
     9    5    6 1    
    10    5   65 1    
    11    5   71 1    
    12    6    7 1    
    13    6   72 1    
    14    6   73 1    
    15    7    8 1    
    16    8    9 1    
    17    8   74 1    
    18    8   75 1    
    19    9   10 ar   
    20    9   14 ar   
    21   10   11 ar   
    22   10   76 1    
    23   11   12 ar   
    24   11   48 1    
    25   12   13 ar   
    26   12   77 1    
    27   13   14 ar   
    28   13   15 1    
    29   14   78 1    
    30   15   16 1    
    31   15   79 1    
    32   15   80 1    
    33   16   17 1    
    34   17   18 1    
    35   17   81 1    
    36   17   82 1    
    37   18   19 1    
    38   18   22 1    
    39   18   83 1    
    40   19   20 am   BACKBONE|DICT|INTERRES
    41   19   21 2    
    42   20   84 1    
    43   20   85 1    
    44   22   23 am   BACKBONE|DICT|INTERRES
    45   22   86 1    
    46   23   24 2    
    47   23   25 1    
    48   25   26 1    
    49   25   27 1    
    50   25   87 1    
    51   26   88 1    
    52   26   89 1    
    53   26   90 1    
    54   27   28 am   BACKBONE|DICT|INTERRES
    55   27   91 1    
    56   28   29 2    
    57   28   30 1    
    58   30   31 1    
    59   30   32 1    
    60   30   92 1    
    61   31   93 1    
    62   31   94 1    
    63   31   95 1    
    64   32   33 am   BACKBONE|DICT|INTERRES
    65   32   96 1    
    66   33   34 2    
    67   33   35 1    
    68   35   36 1    
    69   35   37 1    
    70   35   97 1    
    71   36   98 1    
    72   36   99 1    
    73   36  100 1    
    74   37   38 am   BACKBONE|DICT|INTERRES
    75   37  101 1    
    76   38   39 2    
    77   38   40 1    
    78   40   41 1    
    79   40   42 1    
    80   40  102 1    
    81   41  103 1    
    82   41  104 1    
    83   41  105 1    
    84   42   43 am   BACKBONE|DICT|INTERRES
    85   42  106 1    
    86   43   44 2    
    87   43   45 1    
    88   45   46 1    
    89   45   49 1    
    90   45  107 1    
    91   46   47 1    
    92   46  108 1    
    93   46  109 1    
    94   47   48 1    
    95   48  110 1    
    96   48  111 1    
    97   49   50 am   BACKBONE|DICT|INTERRES
    98   49  112 1    
    99   50   51 2    
   100   50   52 1    
   101   52   53 1    
   102   52   54 1    
   103   52  113 1    
   104   53  114 1    
   105   53  115 1    
   106   53  116 1    
   107   54   55 am   BACKBONE|DICT|INTERRES
   108   54  117 1    
   109   55   56 2    
   110   55   57 1    
   111   57   58 1    
   112   57   59 1    
   113   57  118 1    
   114   58  119 1    
   115   58  120 1    
   116   58  121 1    
   117   59   60 am   BACKBONE|DICT|INTERRES
   118   59  122 1    
   119   60   61 2    
   120   60   62 1    
   121   62   63 1    
   122   62   64 1    
   123   62  123 1    
   124   63  124 1    
   125   63  125 1    
   126   63  126 1    
   127   64   65 am   BACKBONE|DICT|INTERRES
   128   64  127 1    
   129   65   66 2    
@<TRIPOS>SUBSTRUCTURE
     1 UNK         1 GROUP             0       ****    0 ROOT    
