@<TRIPOS>MOLECULE
3R134
127   129    1
SMALL
USER_CHARGES


@<TRIPOS>ATOM
      1 CA         36.4954  -42.5021  -51.1298 C.3       0 UNK        -0.1968 
      2 C          35.8414  -43.7662  -51.6679 C.2       0 UNK         0.4852 
      3 O          34.7392  -44.1080  -51.2373 O.2       0 UNK        -0.5359 
      4 N          36.5108  -44.4467  -52.6102 N.am      1 UNK        -0.4300 
      5 CA         36.0906  -45.7000  -53.2523 C.3       1 UNK         0.0863 
      6 C6         34.8450  -45.5420  -54.1756 C.3       11 UNK        -0.0953 
      7 S7         35.1336  -44.4108  -55.5781 S.3       11 UNK        -0.2369 
      8 C8         34.3306  -42.8688  -55.0366 C.3       11 UNK         0.0226 
      9 C9         32.8157  -42.9908  -54.9508 C.ar      11 UNK        -0.0699 
     10 C10        32.1958  -43.1708  -53.7107 C.ar      11 UNK        -0.0804 
     11 C11        30.8047  -43.2465  -53.6176 C.ar      11 UNK        -0.0871 
     12 C12        30.0343  -43.1016  -54.7725 C.ar      11 UNK        -0.1008 
     13 C13        30.6359  -42.9638  -56.0263 C.ar      11 UNK        -0.0735 
     14 C14        32.0317  -42.9011  -56.1063 C.ar      11 UNK        -0.0945 
     15 C15        29.7870  -42.8803  -57.2914 C.3       11 UNK         0.0169 
     16 S16        28.5903  -44.2543  -57.4271 S.3       11 UNK        -0.2669 
     17 C17        27.1150  -43.5660  -56.5849 C.3       11 UNK        -0.0850 
     18 CA         25.7768  -43.8801  -57.2990 C.3       10 UNK         0.0855 
     19 C          25.6912  -43.2418  -58.7191 C.2       10 UNK         0.5543 
     20 N          25.5972  -44.0118  -59.7979 N.am      10 UNK        -0.7343 
     21 O          25.6982  -42.0190  -58.8385 O.2       10 UNK        -0.5027 
     22 N          25.4776  -45.3156  -57.2319 N.am      10 UNK        -0.4495 
     23 C          24.2792  -45.8665  -57.4594 C.2       10 UNK         0.4903 
     24 O          23.2496  -45.2123  -57.6332 O.2       10 UNK        -0.4860 
     25 CA         24.2291  -47.4073  -57.5107 C.3       9 UNK         0.0227 
     26 CB         23.0363  -47.9344  -58.3354 C.3       9 UNK        -0.1964 
     27 N          25.4811  -48.0249  -57.9708 N.am      9 UNK        -0.4231 
     28 C          26.1235  -47.8070  -59.1314 C.2       9 UNK         0.5014 
     29 O          25.7233  -47.0210  -59.9923 O.2       9 UNK        -0.5270 
     30 CA         27.4512  -48.5523  -59.3719 C.3       8 UNK         0.0284 
     31 CB         28.6074  -47.5546  -59.5503 C.3       8 UNK        -0.1977 
     32 N          27.7892  -49.4942  -58.2995 N.am      8 UNK        -0.4342 
     33 C          27.2946  -50.7370  -58.2104 C.2       8 UNK         0.5039 
     34 O          26.5600  -51.2409  -59.0608 O.2       8 UNK        -0.5547 
     35 CA         27.6408  -51.5482  -56.9501 C.3       7 UNK         0.0281 
     36 CB         28.9604  -52.3109  -57.1395 C.3       7 UNK        -0.1963 
     37 N          27.6925  -50.7505  -55.7191 N.am      7 UNK        -0.4444 
     38 C          26.6402  -50.1108  -55.1868 C.2       7 UNK         0.5104 
     39 O          25.5370  -50.0424  -55.7272 O.2       7 UNK        -0.5100 
     40 CA         26.8491  -49.4252  -53.8295 C.3       6 UNK         0.0396 
     41 CB         26.8436  -50.4566  -52.6898 C.3       6 UNK        -0.1801 
     42 N          28.0923  -48.6606  -53.7938 N.am      6 UNK        -0.4747 
     43 C          28.2482  -47.4410  -54.3290 C.2       6 UNK         0.5012 
     44 O          27.3466  -46.8203  -54.8952 O.2       6 UNK        -0.5003 
     45 CA         29.6710  -46.8416  -54.2488 C.3       5 UNK         0.0782 
     46 C46        29.9832  -46.2835  -52.8328 C.3       11 UNK        -0.0868 
     47 S47        28.9369  -44.8723  -52.3282 S.3       11 UNK        -0.2515 
     48 C48        30.1347  -43.4945  -52.2723 C.3       11 UNK         0.0199 
     49 N          30.6924  -47.8198  -54.6444 N.am      5 UNK        -0.4607 
     50 C          30.7355  -48.4885  -55.8087 C.2       4 UNK         0.5031 
     51 O          29.9405  -48.3196  -56.7313 O.2       4 UNK        -0.5119 
     52 CA         31.8087  -49.5847  -55.9513 C.3       4 UNK         0.0263 
     53 CB         33.0933  -48.9968  -56.5554 C.3       4 UNK        -0.1967 
     54 N          32.1298  -50.2684  -54.6951 N.am      4 UNK        -0.4237 
     55 C          31.2515  -50.8557  -53.8672 C.2       3 UNK         0.4908 
     56 O          30.0593  -51.0092  -54.1348 O.2       3 UNK        -0.5102 
     57 CA         31.7661  -51.2895  -52.4799 C.3       3 UNK         0.0241 
     58 CB         31.9356  -52.8162  -52.4299 C.3       3 UNK        -0.1971 
     59 N          33.0179  -50.6482  -52.0478 N.am      3 UNK        -0.4139 
     60 C          33.2397  -49.3283  -51.9453 C.2       2 UNK         0.5016 
     61 O          32.3949  -48.4736  -52.2276 O.2       2 UNK        -0.5319 
     62 CA         34.6537  -48.8739  -51.5457 C.3       2 UNK         0.0286 
     63 CB         35.7329  -49.9720  -51.7057 C.3       2 UNK        -0.1963 
     64 N          34.9653  -47.7105  -52.3716 N.am      2 UNK        -0.4790 
     65 C          35.9752  -46.8479  -52.2177 C.2       1 UNK         0.5024 
     66 O          36.8201  -46.9455  -51.3241 O.2       1 UNK        -0.4888 
     67 H67        36.6604  -42.5935  -50.0566 H         1 UNK         0.0892 
     68 H68        37.4560  -42.3041  -51.6051 H         1 UNK         0.0892 
     69 H69        35.8482  -41.6428  -51.3035 H         1 UNK         0.0892 
     70 H70        37.4220  -44.1147  -52.8929 H         1 UNK         0.3107 
     71 H71        36.9252  -45.9927  -53.8913 H         1 UNK         0.0773 
     72 H72        34.5834  -46.4957  -54.6342 H         1 UNK         0.0680 
     73 H73        33.9702  -45.2332  -53.6047 H         1 UNK         0.0680 
     74 H74        34.5863  -42.0795  -55.7449 H         1 UNK         0.0650 
     75 H75        34.7466  -42.5559  -54.0792 H         1 UNK         0.0650 
     76 H76        32.7990  -43.2567  -52.8173 H         1 UNK         0.1397 
     77 H77        28.9600  -43.1369  -54.6886 H         1 UNK         0.1363 
     78 H78        32.5130  -42.7780  -57.0669 H         1 UNK         0.1355 
     79 H79        29.2753  -41.9181  -57.3293 H         1 UNK         0.0707 
     80 H80        30.4282  -42.9150  -58.1735 H         1 UNK         0.0707 
     81 H81        27.0791  -43.9730  -55.5730 H         1 UNK         0.1034 
     82 H82        27.2215  -42.4868  -56.4647 H         1 UNK         0.1034 
     83 H83        24.9961  -43.3842  -56.7189 H         1 UNK         0.0482 
     84 H84        25.5381  -43.5811  -60.7063 H         1 UNK         0.3460 
     85 H85        25.6002  -45.0233  -59.7194 H         1 UNK         0.3460 
     86 H86        26.2700  -45.9224  -57.0725 H         1 UNK         0.2989 
     87 H87        24.0910  -47.7372  -56.4803 H         1 UNK         0.0559 
     88 H88        23.0802  -47.5948  -59.3708 H         1 UNK         0.0848 
     89 H89        22.0881  -47.5911  -57.9199 H         1 UNK         0.0848 
     90 H90        23.0093  -49.0241  -58.3402 H         1 UNK         0.0848 
     91 H91        25.8757  -48.7040  -57.3299 H         1 UNK         0.3144 
     92 H92        27.3427  -49.1047  -60.3076 H         1 UNK         0.0727 
     93 H93        28.7451  -46.9391  -58.6616 H         1 UNK         0.0790 
     94 H94        28.4210  -46.8795  -60.3865 H         1 UNK         0.0790 
     95 H95        29.5484  -48.0672  -59.7503 H         1 UNK         0.0790 
     96 H96        28.4285  -49.1536  -57.5832 H         1 UNK         0.3215 
     97 H97        26.8478  -52.2869  -56.8143 H         1 UNK         0.0863 
     98 H98        29.2245  -52.8844  -56.2507 H         1 UNK         0.0808 
     99 H99        29.7844  -51.6372  -57.3653 H         1 UNK         0.0808 
    100 H100       28.8841  -53.0144  -57.9696 H         1 UNK         0.0808 
    101 H101       28.5629  -50.7739  -55.1902 H         1 UNK         0.3118 
    102 H102       26.0128  -48.7419  -53.6651 H         1 UNK         0.0546 
    103 H103       25.9147  -51.0284  -52.6877 H         1 UNK         0.0828 
    104 H104       26.9264  -49.9718  -51.7171 H         1 UNK         0.0828 
    105 H105       27.6641  -51.1697  -52.7793 H         1 UNK         0.0828 
    106 H106       28.9060  -49.1345  -53.4248 H         1 UNK         0.3005 
    107 H107       29.7187  -46.0207  -54.9679 H         1 UNK         0.1257 
    108 H108       31.0289  -45.9748  -52.7841 H         1 UNK         0.0775 
    109 H109       29.8804  -47.0680  -52.0806 H         1 UNK         0.0775 
    110 H110       29.6160  -42.5863  -51.9628 H         1 UNK         0.0840 
    111 H111       30.8765  -43.7059  -51.5003 H         1 UNK         0.0840 
    112 H112       31.3684  -48.0584  -53.9256 H         1 UNK         0.2987 
    113 H113       31.4265  -50.3350  -56.6420 H         1 UNK         0.0785 
    114 H114       33.5490  -48.2582  -55.8962 H         1 UNK         0.0798 
    115 H115       32.8852  -48.5005  -57.5046 H         1 UNK         0.0798 
    116 H116       33.8320  -49.7735  -56.7540 H         1 UNK         0.0798 
    117 H117       33.0885  -50.2107  -54.3873 H         1 UNK         0.3079 
    118 H118       30.9960  -51.0074  -51.7592 H         1 UNK         0.0794 
    119 H119       32.7190  -53.1580  -53.1075 H         1 UNK         0.0786 
    120 H120       31.0124  -53.3219  -52.7177 H         1 UNK         0.0786 
    121 H121       32.1868  -53.1561  -51.4249 H         1 UNK         0.0786 
    122 H122       33.7786  -51.2709  -51.8164 H         1 UNK         0.3032 
    123 H123       34.6110  -48.5590  -50.5009 H         1 UNK         0.1094 
    124 H124       36.7221  -49.6050  -51.4330 H         1 UNK         0.0794 
    125 H125       35.5360  -50.8246  -51.0547 H         1 UNK         0.0794 
    126 H126       35.7922  -50.3371  -52.7319 H         1 UNK         0.0794 
    127 H127       34.2592  -47.5088  -53.0671 H         1 UNK         0.3016 
@<TRIPOS>BOND
     1    1    2 1    
     2    1   67 1    
     3    1   68 1    
     4    1   69 1    
     5    2    3 2    
     6    2    4 am   BACKBONE|DICT|INTERRES
     7    4    5 1    
     8    4   70 1    
     9    5    6 1    
    10    5   65 1    
    11    5   71 1    
    12    6    7 1    
    13    6   72 1    
    14    6   73 1    
    15    7    8 1    
    16    8    9 1    
    17    8   74 1    
    18    8   75 1    
    19    9   10 ar   
    20    9   14 ar   
    21   10   11 ar   
    22   10   76 1    
    23   11   12 ar   
    24   11   48 1    
    25   12   13 ar   
    26   12   77 1    
    27   13   14 ar   
    28   13   15 1    
    29   14   78 1    
    30   15   16 1    
    31   15   79 1    
    32   15   80 1    
    33   16   17 1    
    34   17   18 1    
    35   17   81 1    
    36   17   82 1    
    37   18   19 1    
    38   18   22 1    
    39   18   83 1    
    40   19   20 am   BACKBONE|DICT|INTERRES
    41   19   21 2    
    42   20   84 1    
    43   20   85 1    
    44   22   23 am   BACKBONE|DICT|INTERRES
    45   22   86 1    
    46   23   24 2    
    47   23   25 1    
    48   25   26 1    
    49   25   27 1    
    50   25   87 1    
    51   26   88 1    
    52   26   89 1    
    53   26   90 1    
    54   27   28 am   BACKBONE|DICT|INTERRES
    55   27   91 1    
    56   28   29 2    
    57   28   30 1    
    58   30   31 1    
    59   30   32 1    
    60   30   92 1    
    61   31   93 1    
    62   31   94 1    
    63   31   95 1    
    64   32   33 am   BACKBONE|DICT|INTERRES
    65   32   96 1    
    66   33   34 2    
    67   33   35 1    
    68   35   36 1    
    69   35   37 1    
    70   35   97 1    
    71   36   98 1    
    72   36   99 1    
    73   36  100 1    
    74   37   38 am   BACKBONE|DICT|INTERRES
    75   37  101 1    
    76   38   39 2    
    77   38   40 1    
    78   40   41 1    
    79   40   42 1    
    80   40  102 1    
    81   41  103 1    
    82   41  104 1    
    83   41  105 1    
    84   42   43 am   BACKBONE|DICT|INTERRES
    85   42  106 1    
    86   43   44 2    
    87   43   45 1    
    88   45   46 1    
    89   45   49 1    
    90   45  107 1    
    91   46   47 1    
    92   46  108 1    
    93   46  109 1    
    94   47   48 1    
    95   48  110 1    
    96   48  111 1    
    97   49   50 am   BACKBONE|DICT|INTERRES
    98   49  112 1    
    99   50   51 2    
   100   50   52 1    
   101   52   53 1    
   102   52   54 1    
   103   52  113 1    
   104   53  114 1    
   105   53  115 1    
   106   53  116 1    
   107   54   55 am   BACKBONE|DICT|INTERRES
   108   54  117 1    
   109   55   56 2    
   110   55   57 1    
   111   57   58 1    
   112   57   59 1    
   113   57  118 1    
   114   58  119 1    
   115   58  120 1    
   116   58  121 1    
   117   59   60 am   BACKBONE|DICT|INTERRES
   118   59  122 1    
   119   60   61 2    
   120   60   62 1    
   121   62   63 1    
   122   62   64 1    
   123   62  123 1    
   124   63  124 1    
   125   63  125 1    
   126   63  126 1    
   127   64   65 am   BACKBONE|DICT|INTERRES
   128   64  127 1    
   129   65   66 2    
@<TRIPOS>SUBSTRUCTURE
     1 UNK         1 GROUP             0       ****    0 ROOT    
