@<TRIPOS>MOLECULE
3R134
127   129    1
SMALL
USER_CHARGES


@<TRIPOS>ATOM
      1 CA         37.8721  -43.3666  -53.8592 C.3       0 UNK        -0.1968 
      2 C          37.2584  -44.3876  -54.8058 C.2       0 UNK         0.4852 
      3 O          37.9292  -44.8399  -55.7347 O.2       0 UNK        -0.5359 
      4 N          35.9884  -44.7491  -54.5785 N.am      1 UNK        -0.4300 
      5 CA         35.2424  -45.7459  -55.3568 C.3       1 UNK         0.0863 
      6 C6         33.7135  -45.6575  -55.1075 C.3       11 UNK        -0.0953 
      7 S7         33.2479  -45.7497  -53.3401 S.3       11 UNK        -0.2369 
      8 C8         32.6044  -44.0770  -53.0212 C.3       11 UNK         0.0226 
      9 C9         31.0976  -44.0143  -53.2195 C.ar      11 UNK        -0.0699 
     10 C10        30.2427  -44.1567  -52.1221 C.ar      11 UNK        -0.0804 
     11 C11        28.8562  -44.0954  -52.2880 C.ar      11 UNK        -0.0871 
     12 C12        28.3258  -43.9096  -53.5678 C.ar      11 UNK        -0.1008 
     13 C13        29.1701  -43.7612  -54.6728 C.ar      11 UNK        -0.0735 
     14 C14        30.5558  -43.8051  -54.4911 C.ar      11 UNK        -0.0945 
     15 C15        28.5803  -43.5671  -56.0613 C.3       11 UNK         0.0169 
     16 S16        27.6885  -41.9865  -56.1796 S.3       11 UNK        -0.2669 
     17 C17        27.1472  -41.9768  -57.9214 C.3       11 UNK        -0.0850 
     18 CA         25.7506  -42.6439  -58.1103 C.3       10 UNK         0.0855 
     19 C          24.9691  -42.1119  -59.3545 C.2       10 UNK         0.5543 
     20 N          24.0959  -42.9015  -59.9684 N.am      10 UNK        -0.7343 
     21 O          25.1219  -40.9585  -59.7499 O.2       10 UNK        -0.5027 
     22 N          25.8149  -44.1159  -58.0014 N.am      10 UNK        -0.4495 
     23 C          26.4062  -44.9402  -58.8785 C.2       10 UNK         0.4903 
     24 O          26.9734  -44.5598  -59.9038 O.2       10 UNK        -0.4860 
     25 CA         26.3187  -46.4422  -58.5565 C.3       9 UNK         0.0227 
     26 CB         26.0429  -47.2894  -59.8152 C.3       9 UNK        -0.1964 
     27 N          27.4918  -46.9495  -57.8367 N.am      9 UNK        -0.4231 
     28 C          28.7734  -46.9929  -58.2395 C.2       9 UNK         0.5014 
     29 O          29.2016  -46.5113  -59.2881 O.2       9 UNK        -0.5270 
     30 CA         29.7479  -47.7661  -57.3318 C.3       8 UNK         0.0284 
     31 CB         30.2136  -46.9009  -56.1511 C.3       8 UNK        -0.1977 
     32 N          29.1727  -49.0129  -56.8245 N.am      8 UNK        -0.4342 
     33 C          28.8063  -50.0623  -57.5751 C.2       8 UNK         0.5039 
     34 O          28.9913  -50.1412  -58.7901 O.2       8 UNK        -0.5547 
     35 CA         28.0894  -51.2103  -56.8482 C.3       7 UNK         0.0281 
     36 CB         29.0975  -52.1639  -56.1859 C.3       7 UNK        -0.1963 
     37 N          27.1550  -50.7007  -55.8429 N.am      7 UNK        -0.4444 
     38 C          25.9181  -50.2620  -56.1146 C.2       7 UNK         0.5104 
     39 O          25.4028  -50.3114  -57.2315 O.2       7 UNK        -0.5100 
     40 CA         25.1135  -49.6645  -54.9454 C.3       6 UNK         0.0396 
     41 CB         24.2334  -50.7437  -54.2954 C.3       6 UNK        -0.1801 
     42 N          25.9510  -49.0403  -53.9171 N.am      6 UNK        -0.4747 
     43 C          26.6343  -47.8981  -54.0823 C.2       6 UNK         0.5012 
     44 O          26.6230  -47.2388  -55.1222 O.2       6 UNK        -0.5003 
     45 CA         27.5187  -47.4452  -52.9025 C.3       5 UNK         0.0782 
     46 C46        26.6893  -46.6035  -51.9036 C.3       11 UNK        -0.0868 
     47 S47        27.7080  -45.9303  -50.5483 S.3       11 UNK        -0.2515 
     48 C48        27.9371  -44.2050  -51.0797 C.3       11 UNK         0.0199 
     49 N          28.2247  -48.5538  -52.2419 N.am      5 UNK        -0.4607 
     50 C          29.0559  -49.4052  -52.8528 C.2       4 UNK         0.5031 
     51 O          29.2259  -49.4330  -54.0728 O.2       4 UNK        -0.5119 
     52 CA         29.7773  -50.4343  -51.9683 C.3       4 UNK         0.0263 
     53 CB         28.9027  -51.6865  -51.7932 C.3       4 UNK        -0.1967 
     54 N          31.0557  -50.8241  -52.5682 N.am      4 UNK        -0.4237 
     55 C          32.1198  -50.0164  -52.6606 C.2       3 UNK         0.4908 
     56 O          32.2040  -48.9218  -52.0975 O.2       3 UNK        -0.5102 
     57 CA         33.2673  -50.5093  -53.5508 C.3       3 UNK         0.0241 
     58 CB         32.8445  -50.5385  -55.0340 C.3       3 UNK        -0.1971 
     59 N          34.4100  -49.6151  -53.3927 N.am      3 UNK        -0.4139 
     60 C          35.6911  -49.9335  -53.6096 C.2       2 UNK         0.5016 
     61 O          36.0674  -51.0629  -53.9310 O.2       2 UNK        -0.5319 
     62 CA         36.7184  -48.7910  -53.4508 C.3       2 UNK         0.0286 
     63 CB         38.0783  -49.1115  -54.1076 C.3       2 UNK        -0.1963 
     64 N          36.2171  -47.4896  -53.9185 N.am      2 UNK        -0.4790 
     65 C          35.7654  -47.1837  -55.1478 C.2       1 UNK         0.5024 
     66 O          35.7422  -47.9729  -56.0932 O.2       1 UNK        -0.4888 
     67 H67        38.7441  -43.7921  -53.3632 H         1 UNK         0.0892 
     68 H68        38.1919  -42.4852  -54.4143 H         1 UNK         0.0892 
     69 H69        37.1681  -43.0461  -53.0913 H         1 UNK         0.0892 
     70 H70        35.4866  -44.3455  -53.8006 H         1 UNK         0.3107 
     71 H71        35.4072  -45.5147  -56.4117 H         1 UNK         0.0773 
     72 H72        33.3352  -44.7292  -55.5355 H         1 UNK         0.0680 
     73 H73        33.1917  -46.4527  -55.6428 H         1 UNK         0.0680 
     74 H74        33.1043  -43.3445  -53.6564 H         1 UNK         0.0650 
     75 H75        32.8542  -43.8027  -51.9951 H         1 UNK         0.0650 
     76 H76        30.6562  -44.3124  -51.1349 H         1 UNK         0.1397 
     77 H77        27.2543  -43.8659  -53.7080 H         1 UNK         0.1363 
     78 H78        31.2130  -43.6874  -55.3409 H         1 UNK         0.1355 
     79 H79        29.3579  -43.6040  -56.8259 H         1 UNK         0.0707 
     80 H80        27.8995  -44.3927  -56.2667 H         1 UNK         0.0707 
     81 H81        27.9031  -42.4388  -58.5579 H         1 UNK         0.1034 
     82 H82        27.1236  -40.9264  -58.2158 H         1 UNK         0.1034 
     83 H83        25.1269  -42.3245  -57.2744 H         1 UNK         0.0482 
     84 H84        23.9481  -43.8451  -59.6489 H         1 UNK         0.3460 
     85 H85        23.5850  -42.5500  -60.7628 H         1 UNK         0.3460 
     86 H86        25.3544  -44.5125  -57.1947 H         1 UNK         0.2989 
     87 H87        25.4721  -46.5886  -57.8835 H         1 UNK         0.0559 
     88 H88        26.8569  -47.2247  -60.5380 H         1 UNK         0.0848 
     89 H89        25.1350  -46.9556  -60.3188 H         1 UNK         0.0848 
     90 H90        25.9066  -48.3408  -59.5601 H         1 UNK         0.0848 
     91 H91        27.2874  -47.2998  -56.9036 H         1 UNK         0.3144 
     92 H92        30.6247  -48.0287  -57.9272 H         1 UNK         0.0727 
     93 H93        30.9202  -47.4364  -55.5166 H         1 UNK         0.0790 
     94 H94        29.3784  -46.5904  -55.5237 H         1 UNK         0.0790 
     95 H95        30.7122  -45.9984  -56.5055 H         1 UNK         0.0790 
     96 H96        29.0625  -49.0859  -55.8135 H         1 UNK         0.3215 
     97 H97        27.5310  -51.7797  -57.5950 H         1 UNK         0.0863 
     98 H98        29.6747  -51.6691  -55.4059 H         1 UNK         0.0808 
     99 H99        29.8057  -52.5519  -56.9192 H         1 UNK         0.0808 
    100 H100       28.5945  -53.0203  -55.7367 H         1 UNK         0.0808 
    101 H101       27.5239  -50.5570  -54.9125 H         1 UNK         0.3118 
    102 H102       24.4571  -48.8953  -55.3585 H         1 UNK         0.0546 
    103 H103       23.5949  -50.3218  -53.5191 H         1 UNK         0.0828 
    104 H104       24.8310  -51.5377  -53.8458 H         1 UNK         0.0828 
    105 H105       23.5778  -51.2083  -55.0333 H         1 UNK         0.0828 
    106 H106       26.0259  -49.5203  -53.0315 H         1 UNK         0.3005 
    107 H107       28.2904  -46.8001  -53.3279 H         1 UNK         0.1257 
    108 H108       25.8990  -47.2102  -51.4574 H         1 UNK         0.0775 
    109 H109       26.1833  -45.7820  -52.4144 H         1 UNK         0.0775 
    110 H110       26.9666  -43.7510  -51.2864 H         1 UNK         0.0840 
    111 H111       28.3622  -43.6375  -50.2505 H         1 UNK         0.0840 
    112 H112       28.1330  -48.5926  -51.2369 H         1 UNK         0.2987 
    113 H113       29.9701  -49.9900  -50.9893 H         1 UNK         0.0785 
    114 H114       29.3927  -52.4264  -51.1600 H         1 UNK         0.0798 
    115 H115       27.9518  -51.4384  -51.3197 H         1 UNK         0.0798 
    116 H116       28.6768  -52.1606  -52.7495 H         1 UNK         0.0798 
    117 H117       31.0643  -51.6951  -53.0778 H         1 UNK         0.3079 
    118 H118       33.5452  -51.5135  -53.2235 H         1 UNK         0.0794 
    119 H119       32.0332  -51.2458  -55.2032 H         1 UNK         0.0786 
    120 H120       33.6703  -50.8408  -55.6784 H         1 UNK         0.0786 
    121 H121       32.5008  -49.5596  -55.3720 H         1 UNK         0.0786 
    122 H122       34.1688  -48.6844  -53.0728 H         1 UNK         0.3032 
    123 H123       36.8878  -48.6910  -52.3773 H         1 UNK         0.1094 
    124 H124       37.9787  -49.2863  -55.1793 H         1 UNK         0.0794 
    125 H125       38.7891  -48.2973  -53.9657 H         1 UNK         0.0794 
    126 H126       38.5228  -50.0073  -53.6721 H         1 UNK         0.0794 
    127 H127       36.1727  -46.7613  -53.2191 H         1 UNK         0.3016 
@<TRIPOS>BOND
     1    1    2 1    
     2    1   67 1    
     3    1   68 1    
     4    1   69 1    
     5    2    3 2    
     6    2    4 am   BACKBONE|DICT|INTERRES
     7    4    5 1    
     8    4   70 1    
     9    5    6 1    
    10    5   65 1    
    11    5   71 1    
    12    6    7 1    
    13    6   72 1    
    14    6   73 1    
    15    7    8 1    
    16    8    9 1    
    17    8   74 1    
    18    8   75 1    
    19    9   10 ar   
    20    9   14 ar   
    21   10   11 ar   
    22   10   76 1    
    23   11   12 ar   
    24   11   48 1    
    25   12   13 ar   
    26   12   77 1    
    27   13   14 ar   
    28   13   15 1    
    29   14   78 1    
    30   15   16 1    
    31   15   79 1    
    32   15   80 1    
    33   16   17 1    
    34   17   18 1    
    35   17   81 1    
    36   17   82 1    
    37   18   19 1    
    38   18   22 1    
    39   18   83 1    
    40   19   20 am   BACKBONE|DICT|INTERRES
    41   19   21 2    
    42   20   84 1    
    43   20   85 1    
    44   22   23 am   BACKBONE|DICT|INTERRES
    45   22   86 1    
    46   23   24 2    
    47   23   25 1    
    48   25   26 1    
    49   25   27 1    
    50   25   87 1    
    51   26   88 1    
    52   26   89 1    
    53   26   90 1    
    54   27   28 am   BACKBONE|DICT|INTERRES
    55   27   91 1    
    56   28   29 2    
    57   28   30 1    
    58   30   31 1    
    59   30   32 1    
    60   30   92 1    
    61   31   93 1    
    62   31   94 1    
    63   31   95 1    
    64   32   33 am   BACKBONE|DICT|INTERRES
    65   32   96 1    
    66   33   34 2    
    67   33   35 1    
    68   35   36 1    
    69   35   37 1    
    70   35   97 1    
    71   36   98 1    
    72   36   99 1    
    73   36  100 1    
    74   37   38 am   BACKBONE|DICT|INTERRES
    75   37  101 1    
    76   38   39 2    
    77   38   40 1    
    78   40   41 1    
    79   40   42 1    
    80   40  102 1    
    81   41  103 1    
    82   41  104 1    
    83   41  105 1    
    84   42   43 am   BACKBONE|DICT|INTERRES
    85   42  106 1    
    86   43   44 2    
    87   43   45 1    
    88   45   46 1    
    89   45   49 1    
    90   45  107 1    
    91   46   47 1    
    92   46  108 1    
    93   46  109 1    
    94   47   48 1    
    95   48  110 1    
    96   48  111 1    
    97   49   50 am   BACKBONE|DICT|INTERRES
    98   49  112 1    
    99   50   51 2    
   100   50   52 1    
   101   52   53 1    
   102   52   54 1    
   103   52  113 1    
   104   53  114 1    
   105   53  115 1    
   106   53  116 1    
   107   54   55 am   BACKBONE|DICT|INTERRES
   108   54  117 1    
   109   55   56 2    
   110   55   57 1    
   111   57   58 1    
   112   57   59 1    
   113   57  118 1    
   114   58  119 1    
   115   58  120 1    
   116   58  121 1    
   117   59   60 am   BACKBONE|DICT|INTERRES
   118   59  122 1    
   119   60   61 2    
   120   60   62 1    
   121   62   63 1    
   122   62   64 1    
   123   62  123 1    
   124   63  124 1    
   125   63  125 1    
   126   63  126 1    
   127   64   65 am   BACKBONE|DICT|INTERRES
   128   64  127 1    
   129   65   66 2    
@<TRIPOS>SUBSTRUCTURE
     1 UNK         1 GROUP             0       ****    0 ROOT    
