@<TRIPOS>MOLECULE
3R134
127   129    1
SMALL
USER_CHARGES


@<TRIPOS>ATOM
      1 CA         33.1463  -43.0652  -49.3681 C.3       0 UNK        -0.1968 
      2 C          33.4202  -44.0302  -50.5124 C.2       0 UNK         0.4852 
      3 O          32.5404  -44.8163  -50.8644 O.2       0 UNK        -0.5359 
      4 N          34.6293  -43.9658  -51.0887 N.am      1 UNK        -0.4300 
      5 CA         35.1195  -44.7919  -52.1996 C.3       1 UNK         0.0863 
      6 C6         34.3867  -44.5262  -53.5427 C.3       11 UNK        -0.0953 
      7 S7         34.6390  -42.8173  -54.1374 S.3       11 UNK        -0.2369 
      8 C8         32.9875  -42.0679  -53.9122 C.3       11 UNK         0.0226 
      9 C9         31.8587  -42.8349  -54.5966 C.ar      11 UNK        -0.0699 
     10 C10        32.0361  -43.4146  -55.8585 C.ar      11 UNK        -0.0804 
     11 C11        31.0262  -44.1888  -56.4349 C.ar      11 UNK        -0.0871 
     12 C12        29.8110  -44.3367  -55.7634 C.ar      11 UNK        -0.1008 
     13 C13        29.5954  -43.7157  -54.5302 C.ar      11 UNK        -0.0735 
     14 C14        30.6288  -42.9784  -53.9457 C.ar      11 UNK        -0.0945 
     15 C15        28.2562  -43.8590  -53.8187 C.3       11 UNK         0.0169 
     16 S16        27.2035  -42.3823  -54.0065 S.3       11 UNK        -0.2669 
     17 C17        26.7386  -42.4663  -55.7712 C.3       11 UNK        -0.0850 
     18 CA         25.4295  -43.2741  -56.0216 C.3       10 UNK         0.0855 
     19 C          24.1509  -42.3956  -55.9712 C.2       10 UNK         0.5543 
     20 N          23.8879  -41.7493  -54.8448 N.am      10 UNK        -0.7343 
     21 O          23.3995  -42.2881  -56.9398 O.2       10 UNK        -0.5027 
     22 N          25.4989  -44.0427  -57.2710 N.am      10 UNK        -0.4495 
     23 C          26.1450  -45.2020  -57.4208 C.2       10 UNK         0.4903 
     24 O          26.7300  -45.7776  -56.5058 O.2       10 UNK        -0.4860 
     25 CA         26.1681  -45.7986  -58.8328 C.3       9 UNK         0.0227 
     26 CB         26.9912  -44.9144  -59.7914 C.3       9 UNK        -0.1964 
     27 N          26.7459  -47.1423  -58.7928 N.am      9 UNK        -0.4231 
     28 C          26.5316  -48.1004  -59.7024 C.2       9 UNK         0.5014 
     29 O          25.7776  -47.9684  -60.6681 O.2       9 UNK        -0.5270 
     30 CA         27.2894  -49.4254  -59.5299 C.3       8 UNK         0.0284 
     31 CB         28.6949  -49.3250  -60.1471 C.3       8 UNK        -0.1977 
     32 N          27.4018  -49.8321  -58.1286 N.am      8 UNK        -0.4342 
     33 C          26.5155  -50.6090  -57.4909 C.2       8 UNK         0.5039 
     34 O          25.4828  -51.0337  -58.0115 O.2       8 UNK        -0.5547 
     35 CA         26.8349  -51.0155  -56.0397 C.3       7 UNK         0.0281 
     36 CB         27.4885  -52.4067  -56.0107 C.3       7 UNK        -0.1963 
     37 N          27.7081  -50.0654  -55.3507 N.am      7 UNK        -0.4444 
     38 C          27.3258  -48.8581  -54.9170 C.2       7 UNK         0.5104 
     39 O          26.1594  -48.4659  -54.9435 O.2       7 UNK        -0.5100 
     40 CA         28.4307  -47.9282  -54.3785 C.3       6 UNK         0.0396 
     41 CB         28.5533  -48.0544  -52.8535 C.3       6 UNK        -0.1801 
     42 N          29.7465  -48.1340  -54.9957 N.am      6 UNK        -0.4747 
     43 C          30.0166  -47.9805  -56.3021 C.2       6 UNK         0.5012 
     44 O          29.1723  -47.6874  -57.1481 O.2       6 UNK        -0.5003 
     45 CA         31.4623  -48.2662  -56.7428 C.3       5 UNK         0.0782 
     46 C46        32.4137  -47.0909  -56.3940 C.3       11 UNK        -0.0868 
     47 S47        32.7015  -45.9697  -57.8050 S.3       11 UNK        -0.2515 
     48 C48        31.2427  -44.8715  -57.7791 C.3       11 UNK         0.0199 
     49 N          31.9117  -49.5335  -56.1661 N.am      5 UNK        -0.4607 
     50 C          31.5448  -50.7399  -56.6210 C.2       4 UNK         0.5031 
     51 O          30.8598  -50.9106  -57.6288 O.2       4 UNK        -0.5119 
     52 CA         31.9940  -51.9636  -55.8021 C.3       4 UNK         0.0263 
     53 CB         33.3421  -52.4904  -56.3191 C.3       4 UNK        -0.1967 
     54 N          32.0968  -51.6902  -54.3659 N.am      4 UNK        -0.4237 
     55 C          31.0593  -51.3747  -53.5773 C.2       3 UNK         0.4908 
     56 O          29.8932  -51.3392  -53.9655 O.2       3 UNK        -0.5102 
     57 CA         31.3779  -50.9853  -52.1240 C.3       3 UNK         0.0241 
     58 CB         31.3507  -52.2267  -51.2184 C.3       3 UNK        -0.1971 
     59 N          32.6561  -50.2841  -51.9586 N.am      3 UNK        -0.4139 
     60 C          32.9898  -49.1279  -52.5493 C.2       2 UNK         0.5016 
     61 O          32.2718  -48.5260  -53.3549 O.2       2 UNK        -0.5319 
     62 CA         34.3886  -48.5937  -52.2303 C.3       2 UNK         0.0286 
     63 CB         35.4470  -49.2835  -53.1102 C.3       2 UNK        -0.1963 
     64 N          34.4236  -47.1540  -52.4679 N.am      2 UNK        -0.4790 
     65 C          35.1820  -46.2813  -51.7928 C.2       1 UNK         0.5024 
     66 O          35.9415  -46.6117  -50.8793 O.2       1 UNK        -0.4888 
     67 H67        32.9146  -43.6185  -48.4584 H         1 UNK         0.0892 
     68 H68        34.0000  -42.4190  -49.1642 H         1 UNK         0.0892 
     69 H69        32.2926  -42.4322  -49.6090 H         1 UNK         0.0892 
     70 H70        35.3061  -43.3106  -50.7235 H         1 UNK         0.3107 
     71 H71        36.1613  -44.5008  -52.3440 H         1 UNK         0.0773 
     72 H72        33.3226  -44.7482  -53.4554 H         1 UNK         0.0680 
     73 H73        34.7706  -45.1835  -54.3252 H         1 UNK         0.0680 
     74 H74        33.0075  -41.0502  -54.3033 H         1 UNK         0.0650 
     75 H75        32.7962  -41.9863  -52.8413 H         1 UNK         0.0650 
     76 H76        32.9773  -43.3013  -56.3783 H         1 UNK         0.1397 
     77 H77        29.0290  -44.9355  -56.2054 H         1 UNK         0.1363 
     78 H78        30.4736  -42.5210  -52.9781 H         1 UNK         0.1355 
     79 H79        27.7101  -44.7269  -54.1867 H         1 UNK         0.0707 
     80 H80        28.4291  -44.0374  -52.7564 H         1 UNK         0.0707 
     81 H81        26.6530  -41.4495  -56.1592 H         1 UNK         0.1034 
     82 H82        27.5722  -42.8977  -56.3235 H         1 UNK         0.1034 
     83 H83        25.3031  -44.0066  -55.2215 H         1 UNK         0.0482 
     84 H84        23.0647  -41.1705  -54.7864 H         1 UNK         0.3460 
     85 H85        24.5150  -41.8183  -54.0573 H         1 UNK         0.3460 
     86 H86        24.9826  -43.6416  -58.0430 H         1 UNK         0.2989 
     87 H87        25.1360  -45.8603  -59.1839 H         1 UNK         0.0559 
     88 H88        28.0268  -44.8241  -59.4608 H         1 UNK         0.0848 
     89 H89        26.9988  -45.3218  -60.8025 H         1 UNK         0.0848 
     90 H90        26.5803  -43.9066  -59.8581 H         1 UNK         0.0848 
     91 H91        27.3728  -47.3150  -58.0093 H         1 UNK         0.3144 
     92 H92        26.7436  -50.1934  -60.0825 H         1 UNK         0.0727 
     93 H93        29.2341  -50.2686  -60.0601 H         1 UNK         0.0790 
     94 H94        29.2974  -48.5521  -59.6691 H         1 UNK         0.0790 
     95 H95        28.6367  -49.0806  -61.2085 H         1 UNK         0.0790 
     96 H96        28.1950  -49.4666  -57.6146 H         1 UNK         0.3215 
     97 H97        25.8889  -51.0703  -55.4965 H         1 UNK         0.0863 
     98 H98        27.6485  -52.7482  -54.9878 H         1 UNK         0.0808 
     99 H99        28.4542  -52.4082  -56.5185 H         1 UNK         0.0808 
    100 H100       26.8573  -53.1470  -56.5043 H         1 UNK         0.0808 
    101 H101       28.6608  -50.3644  -55.1631 H         1 UNK         0.3118 
    102 H102       28.1333  -46.9063  -54.6074 H         1 UNK         0.0546 
    103 H103       28.7894  -49.0751  -52.5551 H         1 UNK         0.0828 
    104 H104       27.6157  -47.7835  -52.3667 H         1 UNK         0.0828 
    105 H105       29.3275  -47.3963  -52.4580 H         1 UNK         0.0828 
    106 H106       30.5138  -48.3686  -54.3727 H         1 UNK         0.3005 
    107 H107       31.4473  -48.3936  -57.8283 H         1 UNK         0.1257 
    108 H108       33.3974  -47.4778  -56.1228 H         1 UNK         0.0775 
    109 H109       32.0876  -46.5286  -55.5165 H         1 UNK         0.0775 
    110 H110       31.3686  -44.1052  -58.5450 H         1 UNK         0.0840 
    111 H111       30.3629  -45.4467  -58.0709 H         1 UNK         0.0840 
    112 H112       32.4092  -49.4692  -55.2874 H         1 UNK         0.2987 
    113 H113       31.2431  -52.7445  -55.9413 H         1 UNK         0.0785 
    114 H114       33.2865  -52.7235  -57.3835 H         1 UNK         0.0798 
    115 H115       33.6348  -53.4058  -55.8043 H         1 UNK         0.0798 
    116 H116       34.1406  -51.7591  -56.1870 H         1 UNK         0.0798 
    117 H117       33.0211  -51.7057  -53.9607 H         1 UNK         0.3079 
    118 H118       30.5933  -50.3060  -51.7883 H         1 UNK         0.0794 
    119 H119       31.4709  -51.9562  -50.1691 H         1 UNK         0.0786 
    120 H120       32.1396  -52.9345  -51.4763 H         1 UNK         0.0786 
    121 H121       30.3990  -52.7531  -51.3070 H         1 UNK         0.0786 
    122 H122       33.3187  -50.7112  -51.3267 H         1 UNK         0.3032 
    123 H123       34.5971  -48.7960  -51.1769 H         1 UNK         0.1094 
    124 H124       35.2658  -49.1067  -54.1713 H         1 UNK         0.0794 
    125 H125       36.4496  -48.9228  -52.8793 H         1 UNK         0.0794 
    126 H126       35.4511  -50.3628  -52.9532 H         1 UNK         0.0794 
    127 H127       33.7417  -46.8204  -53.1376 H         1 UNK         0.3016 
@<TRIPOS>BOND
     1    1    2 1    
     2    1   67 1    
     3    1   68 1    
     4    1   69 1    
     5    2    3 2    
     6    2    4 am   BACKBONE|DICT|INTERRES
     7    4    5 1    
     8    4   70 1    
     9    5    6 1    
    10    5   65 1    
    11    5   71 1    
    12    6    7 1    
    13    6   72 1    
    14    6   73 1    
    15    7    8 1    
    16    8    9 1    
    17    8   74 1    
    18    8   75 1    
    19    9   10 ar   
    20    9   14 ar   
    21   10   11 ar   
    22   10   76 1    
    23   11   12 ar   
    24   11   48 1    
    25   12   13 ar   
    26   12   77 1    
    27   13   14 ar   
    28   13   15 1    
    29   14   78 1    
    30   15   16 1    
    31   15   79 1    
    32   15   80 1    
    33   16   17 1    
    34   17   18 1    
    35   17   81 1    
    36   17   82 1    
    37   18   19 1    
    38   18   22 1    
    39   18   83 1    
    40   19   20 am   BACKBONE|DICT|INTERRES
    41   19   21 2    
    42   20   84 1    
    43   20   85 1    
    44   22   23 am   BACKBONE|DICT|INTERRES
    45   22   86 1    
    46   23   24 2    
    47   23   25 1    
    48   25   26 1    
    49   25   27 1    
    50   25   87 1    
    51   26   88 1    
    52   26   89 1    
    53   26   90 1    
    54   27   28 am   BACKBONE|DICT|INTERRES
    55   27   91 1    
    56   28   29 2    
    57   28   30 1    
    58   30   31 1    
    59   30   32 1    
    60   30   92 1    
    61   31   93 1    
    62   31   94 1    
    63   31   95 1    
    64   32   33 am   BACKBONE|DICT|INTERRES
    65   32   96 1    
    66   33   34 2    
    67   33   35 1    
    68   35   36 1    
    69   35   37 1    
    70   35   97 1    
    71   36   98 1    
    72   36   99 1    
    73   36  100 1    
    74   37   38 am   BACKBONE|DICT|INTERRES
    75   37  101 1    
    76   38   39 2    
    77   38   40 1    
    78   40   41 1    
    79   40   42 1    
    80   40  102 1    
    81   41  103 1    
    82   41  104 1    
    83   41  105 1    
    84   42   43 am   BACKBONE|DICT|INTERRES
    85   42  106 1    
    86   43   44 2    
    87   43   45 1    
    88   45   46 1    
    89   45   49 1    
    90   45  107 1    
    91   46   47 1    
    92   46  108 1    
    93   46  109 1    
    94   47   48 1    
    95   48  110 1    
    96   48  111 1    
    97   49   50 am   BACKBONE|DICT|INTERRES
    98   49  112 1    
    99   50   51 2    
   100   50   52 1    
   101   52   53 1    
   102   52   54 1    
   103   52  113 1    
   104   53  114 1    
   105   53  115 1    
   106   53  116 1    
   107   54   55 am   BACKBONE|DICT|INTERRES
   108   54  117 1    
   109   55   56 2    
   110   55   57 1    
   111   57   58 1    
   112   57   59 1    
   113   57  118 1    
   114   58  119 1    
   115   58  120 1    
   116   58  121 1    
   117   59   60 am   BACKBONE|DICT|INTERRES
   118   59  122 1    
   119   60   61 2    
   120   60   62 1    
   121   62   63 1    
   122   62   64 1    
   123   62  123 1    
   124   63  124 1    
   125   63  125 1    
   126   63  126 1    
   127   64   65 am   BACKBONE|DICT|INTERRES
   128   64  127 1    
   129   65   66 2    
@<TRIPOS>SUBSTRUCTURE
     1 UNK         1 GROUP             0       ****    0 ROOT    
