@<TRIPOS>MOLECULE
3R134
127   129    1
SMALL
USER_CHARGES


@<TRIPOS>ATOM
      1 CA         37.2798  -45.4790  -49.2606 C.3       0 UNK        -0.1968 
      2 C          35.9487  -44.8456  -48.8618 C.2       0 UNK         0.4852 
      3 O          35.7853  -44.4690  -47.7018 O.2       0 UNK        -0.5359 
      4 N          34.9796  -44.6893  -49.7744 N.am      1 UNK        -0.4300 
      5 CA         34.9791  -45.1551  -51.1658 C.3       1 UNK         0.0863 
      6 C6         33.9372  -44.3960  -52.0264 C.3       11 UNK        -0.0953 
      7 S7         32.2463  -44.3541  -51.3324 S.3       11 UNK        -0.2369 
      8 C8         31.5427  -42.9228  -52.2135 C.3       11 UNK         0.0226 
      9 C9         31.0742  -43.2956  -53.6133 C.ar      11 UNK        -0.0699 
     10 C10        31.9951  -43.4339  -54.6556 C.ar      11 UNK        -0.0804 
     11 C11        31.5754  -43.8060  -55.9355 C.ar      11 UNK        -0.0871 
     12 C12        30.2110  -43.9925  -56.1802 C.ar      11 UNK        -0.1008 
     13 C13        29.2766  -43.8351  -55.1524 C.ar      11 UNK        -0.0735 
     14 C14        29.7152  -43.4964  -53.8692 C.ar      11 UNK        -0.0945 
     15 C15        27.7949  -44.0513  -55.4139 C.3       11 UNK         0.0169 
     16 S16        26.9908  -42.5312  -56.0120 S.3       11 UNK        -0.2669 
     17 C17        27.1083  -42.7332  -57.8249 C.3       11 UNK        -0.0850 
     18 CA         25.7861  -43.2640  -58.4410 C.3       10 UNK         0.0855 
     19 C          25.8410  -43.2800  -59.9974 C.2       10 UNK         0.5543 
     20 N          25.5740  -44.3934  -60.6717 N.am      10 UNK        -0.7343 
     21 O          26.1239  -42.2529  -60.6091 O.2       10 UNK        -0.5027 
     22 N          25.4039  -44.5524  -57.8466 N.am      10 UNK        -0.4495 
     23 C          24.1531  -44.9925  -57.6789 C.2       10 UNK         0.4903 
     24 O          23.1487  -44.3368  -57.9606 O.2       10 UNK        -0.4860 
     25 CA         24.0168  -46.4145  -57.0981 C.3       9 UNK         0.0227 
     26 CB         22.6417  -47.0501  -57.3925 C.3       9 UNK        -0.1964 
     27 N          25.1031  -47.3182  -57.5057 N.am      9 UNK        -0.4231 
     28 C          25.4379  -47.6679  -58.7610 C.2       9 UNK         0.5014 
     29 O          24.8854  -47.2121  -59.7635 O.2       9 UNK        -0.5270 
     30 CA         26.6002  -48.6627  -58.9515 C.3       8 UNK         0.0284 
     31 CB         27.7706  -47.9921  -59.6912 C.3       8 UNK        -0.1977 
     32 N          27.0798  -49.2420  -57.6928 N.am      8 UNK        -0.4342 
     33 C          26.4346  -50.2043  -57.0153 C.2       8 UNK         0.5039 
     34 O          25.4138  -50.7533  -57.4321 O.2       8 UNK        -0.5547 
     35 CA         26.9834  -50.6215  -55.6372 C.3       7 UNK         0.0281 
     36 CB         27.6603  -51.9988  -55.7320 C.3       7 UNK        -0.1963 
     37 N          27.9142  -49.6686  -55.0241 N.am      7 UNK        -0.4444 
     38 C          27.6331  -48.4044  -54.6765 C.2       7 UNK         0.5104 
     39 O          26.5299  -47.8792  -54.8353 O.2       7 UNK        -0.5100 
     40 CA         28.8084  -47.5636  -54.1409 C.3       6 UNK         0.0396 
     41 CB         29.0468  -47.8303  -52.6479 C.3       6 UNK        -0.1801 
     42 N          30.0530  -47.7725  -54.8906 N.am      6 UNK        -0.4747 
     43 C          30.1877  -47.5544  -56.2091 C.2       6 UNK         0.5012 
     44 O          29.2754  -47.1430  -56.9257 O.2       6 UNK        -0.5003 
     45 CA         31.5355  -47.9329  -56.8476 C.3       5 UNK         0.0782 
     46 C46        32.6085  -46.8260  -56.6846 C.3       11 UNK        -0.0868 
     47 S47        32.4288  -45.5446  -57.9744 S.3       11 UNK        -0.2515 
     48 C48        32.6072  -43.9852  -57.0441 C.3       11 UNK         0.0199 
     49 N          31.9850  -49.2316  -56.3420 N.am      5 UNK        -0.4607 
     50 C          31.5157  -50.4055  -56.7913 C.2       4 UNK         0.5031 
     51 O          30.7254  -50.5100  -57.7291 O.2       4 UNK        -0.5119 
     52 CA         31.9896  -51.6827  -56.0741 C.3       4 UNK         0.0263 
     53 CB         33.2327  -52.2584  -56.7710 C.3       4 UNK        -0.1967 
     54 N          32.2806  -51.4817  -54.6533 N.am      4 UNK        -0.4237 
     55 C          31.3715  -51.1439  -53.7275 C.2       3 UNK         0.4908 
     56 O          30.1720  -51.0140  -53.9613 O.2       3 UNK        -0.5102 
     57 CA         31.8954  -50.8463  -52.3131 C.3       3 UNK         0.0241 
     58 CB         31.8958  -52.1242  -51.4595 C.3       3 UNK        -0.1971 
     59 N          33.2312  -50.2410  -52.2963 N.am      3 UNK        -0.4139 
     60 C          33.5548  -49.0797  -52.8819 C.2       2 UNK         0.5016 
     61 O          32.7686  -48.3944  -53.5434 O.2       2 UNK        -0.5319 
     62 CA         35.0257  -48.6510  -52.7701 C.3       2 UNK         0.0286 
     63 CB         35.7600  -48.9329  -54.0916 C.3       2 UNK        -0.1963 
     64 N          35.1517  -47.2309  -52.4447 N.am      2 UNK        -0.4790 
     65 C          34.7990  -46.6844  -51.2733 C.2       1 UNK         0.5024 
     66 O          34.3693  -47.3344  -50.3166 O.2       1 UNK        -0.4888 
     67 H67        37.7357  -44.9460  -50.0942 H         1 UNK         0.0892 
     68 H68        37.9819  -45.4449  -48.4277 H         1 UNK         0.0892 
     69 H69        37.1479  -46.5245  -49.5368 H         1 UNK         0.0892 
     70 H70        34.1003  -44.2927  -49.4749 H         1 UNK         0.3107 
     71 H71        35.9584  -44.9272  -51.5904 H         1 UNK         0.0773 
     72 H72        33.8891  -44.8184  -53.0310 H         1 UNK         0.0680 
     73 H73        34.2780  -43.3676  -52.1544 H         1 UNK         0.0680 
     74 H74        32.2720  -42.1131  -52.2632 H         1 UNK         0.0650 
     75 H75        30.7060  -42.5374  -51.6290 H         1 UNK         0.0650 
     76 H76        33.0445  -43.2594  -54.4672 H         1 UNK         0.1397 
     77 H77        29.8804  -44.2787  -57.1686 H         1 UNK         0.1363 
     78 H78        28.9960  -43.3858  -53.0692 H         1 UNK         0.1355 
     79 H79        27.2974  -44.3640  -54.4945 H         1 UNK         0.0707 
     80 H80        27.6537  -44.8696  -56.1210 H         1 UNK         0.0707 
     81 H81        27.3564  -41.7562  -58.2442 H         1 UNK         0.1034 
     82 H82        27.9427  -43.3868  -58.0808 H         1 UNK         0.1034 
     83 H83        25.0081  -42.5399  -58.1914 H         1 UNK         0.0482 
     84 H84        25.3123  -45.2494  -60.1964 H         1 UNK         0.3460 
     85 H85        25.6116  -44.3754  -61.6783 H         1 UNK         0.3460 
     86 H86        26.1613  -45.1738  -57.6092 H         1 UNK         0.2989 
     87 H87        24.1057  -46.3076  -56.0161 H         1 UNK         0.0559 
     88 H88        22.4565  -47.1349  -58.4639 H         1 UNK         0.0848 
     89 H89        21.8339  -46.4515  -56.9698 H         1 UNK         0.0848 
     90 H90        22.5646  -48.0472  -56.9590 H         1 UNK         0.0848 
     91 H91        25.6434  -47.7111  -56.7410 H         1 UNK         0.3144 
     92 H92        26.2305  -49.4747  -59.5813 H         1 UNK         0.0727 
     93 H93        28.6323  -48.6561  -59.7659 H         1 UNK         0.0790 
     94 H94        27.4807  -47.7216  -60.7074 H         1 UNK         0.0790 
     95 H95        28.0921  -47.0747  -59.1982 H         1 UNK         0.0790 
     96 H96        27.9048  -48.8172  -57.2843 H         1 UNK         0.3215 
     97 H97        26.1244  -50.7093  -54.9689 H         1 UNK         0.0863 
     98 H98        26.9920  -52.7370  -56.1777 H         1 UNK         0.0808 
     99 H99        27.9393  -52.3728  -54.7469 H         1 UNK         0.0808 
    100 H100       28.5616  -51.9610  -56.3451 H         1 UNK         0.0808 
    101 H101       28.8385  -50.0313  -54.7963 H         1 UNK         0.3118 
    102 H102       28.5396  -46.5134  -54.2507 H         1 UNK         0.0546 
    103 H103       29.8652  -47.2221  -52.2611 H         1 UNK         0.0828 
    104 H104       29.2838  -48.8764  -52.4569 H         1 UNK         0.0828 
    105 H105       28.1577  -47.5876  -52.0646 H         1 UNK         0.0828 
    106 H106       30.8615  -48.0954  -54.3686 H         1 UNK         0.3005 
    107 H107       31.3480  -48.0551  -57.9177 H         1 UNK         0.1257 
    108 H108       33.6066  -47.2508  -56.8020 H         1 UNK         0.0775 
    109 H109       32.5886  -46.3886  -55.6842 H         1 UNK         0.0775 
    110 H110       33.6206  -43.9413  -56.6418 H         1 UNK         0.0840 
    111 H111       32.5181  -43.1506  -57.7406 H         1 UNK         0.0840 
    112 H112       32.5729  -49.2119  -55.5182 H         1 UNK         0.2987 
    113 H113       31.1841  -52.4168  -56.1477 H         1 UNK         0.0785 
    114 H114       33.0363  -52.4425  -57.8283 H         1 UNK         0.0798 
    115 H115       33.5314  -53.2094  -56.3295 H         1 UNK         0.0798 
    116 H116       34.0824  -51.5770  -56.7115 H         1 UNK         0.0798 
    117 H117       33.2439  -51.5735  -54.3667 H         1 UNK         0.3079 
    118 H118       31.2105  -50.1312  -51.8542 H         1 UNK         0.0794 
    119 H119       32.1715  -51.9119  -50.4263 H         1 UNK         0.0786 
    120 H120       32.5901  -52.8710  -51.8470 H         1 UNK         0.0786 
    121 H121       30.9045  -52.5799  -51.4402 H         1 UNK         0.0786 
    122 H122       33.9422  -50.7409  -51.7815 H         1 UNK         0.3032 
    123 H123       35.5074  -49.2238  -51.9741 H         1 UNK         0.1094 
    124 H124       35.3281  -48.3726  -54.9223 H         1 UNK         0.0794 
    125 H125       36.8158  -48.6701  -54.0231 H         1 UNK         0.0794 
    126 H126       35.7088  -49.9912  -54.3512 H         1 UNK         0.0794 
    127 H127       35.4675  -46.6283  -53.1908 H         1 UNK         0.3016 
@<TRIPOS>BOND
     1    1    2 1    
     2    1   67 1    
     3    1   68 1    
     4    1   69 1    
     5    2    3 2    
     6    2    4 am   BACKBONE|DICT|INTERRES
     7    4    5 1    
     8    4   70 1    
     9    5    6 1    
    10    5   65 1    
    11    5   71 1    
    12    6    7 1    
    13    6   72 1    
    14    6   73 1    
    15    7    8 1    
    16    8    9 1    
    17    8   74 1    
    18    8   75 1    
    19    9   10 ar   
    20    9   14 ar   
    21   10   11 ar   
    22   10   76 1    
    23   11   12 ar   
    24   11   48 1    
    25   12   13 ar   
    26   12   77 1    
    27   13   14 ar   
    28   13   15 1    
    29   14   78 1    
    30   15   16 1    
    31   15   79 1    
    32   15   80 1    
    33   16   17 1    
    34   17   18 1    
    35   17   81 1    
    36   17   82 1    
    37   18   19 1    
    38   18   22 1    
    39   18   83 1    
    40   19   20 am   BACKBONE|DICT|INTERRES
    41   19   21 2    
    42   20   84 1    
    43   20   85 1    
    44   22   23 am   BACKBONE|DICT|INTERRES
    45   22   86 1    
    46   23   24 2    
    47   23   25 1    
    48   25   26 1    
    49   25   27 1    
    50   25   87 1    
    51   26   88 1    
    52   26   89 1    
    53   26   90 1    
    54   27   28 am   BACKBONE|DICT|INTERRES
    55   27   91 1    
    56   28   29 2    
    57   28   30 1    
    58   30   31 1    
    59   30   32 1    
    60   30   92 1    
    61   31   93 1    
    62   31   94 1    
    63   31   95 1    
    64   32   33 am   BACKBONE|DICT|INTERRES
    65   32   96 1    
    66   33   34 2    
    67   33   35 1    
    68   35   36 1    
    69   35   37 1    
    70   35   97 1    
    71   36   98 1    
    72   36   99 1    
    73   36  100 1    
    74   37   38 am   BACKBONE|DICT|INTERRES
    75   37  101 1    
    76   38   39 2    
    77   38   40 1    
    78   40   41 1    
    79   40   42 1    
    80   40  102 1    
    81   41  103 1    
    82   41  104 1    
    83   41  105 1    
    84   42   43 am   BACKBONE|DICT|INTERRES
    85   42  106 1    
    86   43   44 2    
    87   43   45 1    
    88   45   46 1    
    89   45   49 1    
    90   45  107 1    
    91   46   47 1    
    92   46  108 1    
    93   46  109 1    
    94   47   48 1    
    95   48  110 1    
    96   48  111 1    
    97   49   50 am   BACKBONE|DICT|INTERRES
    98   49  112 1    
    99   50   51 2    
   100   50   52 1    
   101   52   53 1    
   102   52   54 1    
   103   52  113 1    
   104   53  114 1    
   105   53  115 1    
   106   53  116 1    
   107   54   55 am   BACKBONE|DICT|INTERRES
   108   54  117 1    
   109   55   56 2    
   110   55   57 1    
   111   57   58 1    
   112   57   59 1    
   113   57  118 1    
   114   58  119 1    
   115   58  120 1    
   116   58  121 1    
   117   59   60 am   BACKBONE|DICT|INTERRES
   118   59  122 1    
   119   60   61 2    
   120   60   62 1    
   121   62   63 1    
   122   62   64 1    
   123   62  123 1    
   124   63  124 1    
   125   63  125 1    
   126   63  126 1    
   127   64   65 am   BACKBONE|DICT|INTERRES
   128   64  127 1    
   129   65   66 2    
@<TRIPOS>SUBSTRUCTURE
     1 UNK         1 GROUP             0       ****    0 ROOT    
