@<TRIPOS>MOLECULE
3R134
127   129    1
SMALL
USER_CHARGES


@<TRIPOS>ATOM
      1 CA         37.1446  -48.4881  -55.2380 C.3       0 UNK        -0.1968 
      2 C          35.8379  -47.8952  -54.7356 C.2       0 UNK         0.4852 
      3 O          34.8094  -48.5705  -54.7826 O.2       0 UNK        -0.5359 
      4 N          35.8761  -46.6482  -54.2430 N.am      1 UNK        -0.4300 
      5 CA         34.7390  -45.8552  -53.7483 C.3       1 UNK         0.0863 
      6 C6         35.2106  -44.4995  -53.1701 C.3       11 UNK        -0.0953 
      7 S7         35.7808  -43.3835  -54.4945 S.3       11 UNK        -0.2369 
      8 C8         34.5892  -42.0087  -54.3743 C.3       11 UNK         0.0226 
      9 C9         33.1452  -42.4582  -54.5626 C.ar      11 UNK        -0.0699 
     10 C10        32.2671  -42.4772  -53.4751 C.ar      11 UNK        -0.0804 
     11 C11        30.9354  -42.8689  -53.6353 C.ar      11 UNK        -0.0871 
     12 C12        30.4893  -43.2373  -54.9099 C.ar      11 UNK        -0.1008 
     13 C13        31.3512  -43.2251  -56.0151 C.ar      11 UNK        -0.0735 
     14 C14        32.6798  -42.8308  -55.8264 C.ar      11 UNK        -0.0945 
     15 C15        30.9019  -43.5988  -57.4314 C.3       11 UNK         0.0169 
     16 S16        29.3430  -44.5428  -57.5611 S.3       11 UNK        -0.2669 
     17 C17        28.0728  -43.2253  -57.4609 C.3       11 UNK        -0.0850 
     18 CA         26.6924  -43.6529  -58.0277 C.3       10 UNK         0.0855 
     19 C          26.6385  -43.5844  -59.5838 C.2       10 UNK         0.5543 
     20 N          26.2593  -44.6372  -60.2984 N.am      10 UNK        -0.7343 
     21 O          26.9304  -42.5380  -60.1577 O.2       10 UNK        -0.5027 
     22 N          26.2552  -44.9290  -57.4443 N.am      10 UNK        -0.4495 
     23 C          24.9884  -45.3291  -57.2887 C.2       10 UNK         0.4903 
     24 O          24.0111  -44.6121  -57.5094 O.2       10 UNK        -0.4860 
     25 CA         24.7949  -46.7894  -56.8258 C.3       9 UNK         0.0227 
     26 CB         23.3729  -47.3210  -57.1023 C.3       9 UNK        -0.1964 
     27 N          25.8049  -47.7058  -57.3773 N.am      9 UNK        -0.4231 
     28 C          26.0742  -47.9242  -58.6756 C.2       9 UNK         0.5014 
     29 O          25.4748  -47.3747  -59.6006 O.2       9 UNK        -0.5270 
     30 CA         27.2248  -48.8835  -59.0140 C.3       8 UNK         0.0284 
     31 CB         28.4349  -48.0988  -59.5511 C.3       8 UNK        -0.1977 
     32 N          27.6410  -49.6812  -57.8580 N.am      8 UNK        -0.4342 
     33 C          27.2025  -50.9206  -57.6055 C.2       8 UNK         0.5039 
     34 O          26.4024  -51.5249  -58.3215 O.2       8 UNK        -0.5547 
     35 CA         27.7548  -51.6169  -56.3533 C.3       7 UNK         0.0281 
     36 CB         29.1572  -52.1850  -56.6278 C.3       7 UNK        -0.1963 
     37 N          27.7956  -50.7650  -55.1626 N.am      7 UNK        -0.4444 
     38 C          26.7176  -50.3409  -54.4875 C.2       7 UNK         0.5104 
     39 O          25.5590  -50.5128  -54.8656 O.2       7 UNK        -0.5100 
     40 CA         26.9734  -49.6248  -53.1519 C.3       6 UNK         0.0396 
     41 CB         27.4092  -50.6296  -52.0725 C.3       6 UNK        -0.1801 
     42 N          27.9944  -48.5891  -53.2906 N.am      6 UNK        -0.4747 
     43 C          27.7386  -47.3022  -53.5671 C.2       6 UNK         0.5012 
     44 O          26.6028  -46.8359  -53.6554 O.2       6 UNK        -0.5003 
     45 CA         28.9553  -46.3844  -53.8227 C.3       5 UNK         0.0782 
     46 C46        29.3490  -45.5911  -52.5476 C.3       11 UNK        -0.0868 
     47 S47        28.5554  -43.9515  -52.4876 S.3       11 UNK        -0.2515 
     48 C48        30.0060  -42.8378  -52.4176 C.3       11 UNK         0.0199 
     49 N          30.1026  -47.0899  -54.4069 N.am      5 UNK        -0.4607 
     50 C          30.0680  -47.7320  -55.5832 C.2       4 UNK         0.5031 
     51 O          29.0582  -47.8330  -56.2795 O.2       4 UNK        -0.5119 
     52 CA         31.3525  -48.4332  -56.0413 C.3       4 UNK         0.0263 
     53 CB         32.2841  -47.4271  -56.7339 C.3       4 UNK        -0.1967 
     54 N          32.0738  -49.1347  -54.9741 N.am      4 UNK        -0.4237 
     55 C          31.5622  -50.0796  -54.1687 C.2       3 UNK         0.4908 
     56 O          30.3745  -50.4029  -54.1526 O.2       3 UNK        -0.5102 
     57 CA         32.5359  -50.7741  -53.2093 C.3       3 UNK         0.0241 
     58 CB         33.4692  -51.7314  -53.9692 C.3       3 UNK        -0.1971 
     59 N          33.3246  -49.7850  -52.4798 N.am      3 UNK        -0.4139 
     60 C          32.9725  -49.2659  -51.2958 C.2       2 UNK         0.5016 
     61 O          32.0045  -49.6485  -50.6378 O.2       2 UNK        -0.5319 
     62 CA         33.8361  -48.1133  -50.7497 C.3       2 UNK         0.0286 
     63 CB         34.8961  -48.6515  -49.7756 C.3       2 UNK        -0.1963 
     64 N          34.4977  -47.3148  -51.7869 N.am      2 UNK        -0.4790 
     65 C          33.8598  -46.5981  -52.7242 C.2       1 UNK         0.5024 
     66 O          32.6347  -46.5453  -52.8295 O.2       1 UNK        -0.4888 
     67 H67        37.3545  -49.4233  -54.7184 H         1 UNK         0.0892 
     68 H68        37.0716  -48.6994  -56.3055 H         1 UNK         0.0892 
     69 H69        37.9877  -47.8142  -55.0805 H         1 UNK         0.0892 
     70 H70        36.7585  -46.1566  -54.2463 H         1 UNK         0.3107 
     71 H71        34.0980  -45.6522  -54.6075 H         1 UNK         0.0773 
     72 H72        34.4163  -44.0095  -52.6056 H         1 UNK         0.0680 
     73 H73        36.0265  -44.6442  -52.4597 H         1 UNK         0.0680 
     74 H74        34.8350  -41.2642  -55.1327 H         1 UNK         0.0650 
     75 H75        34.7177  -41.5135  -53.4104 H         1 UNK         0.0650 
     76 H76        32.6213  -42.1775  -52.4979 H         1 UNK         0.1397 
     77 H77        29.4618  -43.5297  -55.0316 H         1 UNK         0.1363 
     78 H78        33.3588  -42.8088  -56.6682 H         1 UNK         0.1355 
     79 H79        31.6817  -44.2091  -57.8906 H         1 UNK         0.0707 
     80 H80        30.8298  -42.6931  -58.0355 H         1 UNK         0.0707 
     81 H81        27.9374  -42.9394  -56.4186 H         1 UNK         0.1034 
     82 H82        28.4375  -42.3241  -57.9581 H         1 UNK         0.1034 
     83 H83        25.9797  -42.8941  -57.6991 H         1 UNK         0.0482 
     84 H84        26.2277  -44.5573  -61.3017 H         1 UNK         0.3460 
     85 H85        25.9849  -45.5097  -59.8591 H         1 UNK         0.3460 
     86 H86        26.9973  -45.5890  -57.2590 H         1 UNK         0.2989 
     87 H87        24.9391  -46.7879  -55.7451 H         1 UNK         0.0559 
     88 H88        23.1338  -47.3021  -58.1661 H         1 UNK         0.0848 
     89 H89        22.6224  -46.7182  -56.5896 H         1 UNK         0.0848 
     90 H90        23.2584  -48.3463  -56.7504 H         1 UNK         0.0848 
     91 H91        26.3737  -48.1929  -56.6988 H         1 UNK         0.3144 
     92 H92        26.8753  -49.5405  -59.8131 H         1 UNK         0.0727 
     93 H93        28.7965  -47.3624  -58.8334 H         1 UNK         0.0790 
     94 H94        28.1738  -47.5572  -60.4614 H         1 UNK         0.0790 
     95 H95        29.2631  -48.7637  -59.7963 H         1 UNK         0.0790 
     96 H96        28.2720  -49.2220  -57.2027 H         1 UNK         0.3215 
     97 H97        27.0932  -52.4571  -56.1308 H         1 UNK         0.0863 
     98 H98        29.5236  -52.7637  -55.7795 H         1 UNK         0.0808 
     99 H99        29.8814  -51.3955  -56.8303 H         1 UNK         0.0808 
    100 H100       29.1477  -52.8491  -57.4933 H         1 UNK         0.0808 
    101 H101       28.7196  -50.5848  -54.7704 H         1 UNK         0.3118 
    102 H102       26.0328  -49.1762  -52.8245 H         1 UNK         0.0546 
    103 H103       26.6636  -51.4160  -51.9482 H         1 UNK         0.0828 
    104 H104       27.5289  -50.1420  -51.1050 H         1 UNK         0.0828 
    105 H105       28.3551  -51.1130  -52.3206 H         1 UNK         0.0828 
    106 H106       28.9584  -48.9000  -53.2962 H         1 UNK         0.3005 
    107 H107       28.6346  -45.6799  -54.5931 H         1 UNK         0.1257 
    108 H108       30.4248  -45.4314  -52.5132 H         1 UNK         0.0775 
    109 H109       29.1157  -46.1382  -51.6321 H         1 UNK         0.0775 
    110 H110       29.6454  -41.8165  -52.2911 H         1 UNK         0.0840 
    111 H111       30.5706  -43.0761  -51.5147 H         1 UNK         0.0840 
    112 H112       30.9771  -47.0448  -53.8927 H         1 UNK         0.2987 
    113 H113       31.0664  -49.1868  -56.7771 H         1 UNK         0.0785 
    114 H114       32.5939  -46.6338  -56.0545 H         1 UNK         0.0798 
    115 H115       31.7825  -46.9514  -57.5780 H         1 UNK         0.0798 
    116 H116       33.1814  -47.9114  -57.1191 H         1 UNK         0.0798 
    117 H117       33.0710  -48.9319  -54.9036 H         1 UNK         0.3079 
    118 H118       31.9476  -51.3706  -52.5084 H         1 UNK         0.0794 
    119 H119       34.1006  -51.2070  -54.6871 H         1 UNK         0.0786 
    120 H120       32.8953  -52.4763  -54.5224 H         1 UNK         0.0786 
    121 H121       34.1224  -52.2707  -53.2831 H         1 UNK         0.0786 
    122 H122       34.1001  -49.3669  -52.9811 H         1 UNK         0.3032 
    123 H123       33.1677  -47.4482  -50.1981 H         1 UNK         0.1094 
    124 H124       35.4528  -47.8405  -49.3055 H         1 UNK         0.0794 
    125 H125       34.4325  -49.2297  -48.9750 H         1 UNK         0.0794 
    126 H126       35.6110  -49.3050  -50.2771 H         1 UNK         0.0794 
    127 H127       35.5076  -47.3157  -51.7901 H         1 UNK         0.3016 
@<TRIPOS>BOND
     1    1    2 1    
     2    1   67 1    
     3    1   68 1    
     4    1   69 1    
     5    2    3 2    
     6    2    4 am   BACKBONE|DICT|INTERRES
     7    4    5 1    
     8    4   70 1    
     9    5    6 1    
    10    5   65 1    
    11    5   71 1    
    12    6    7 1    
    13    6   72 1    
    14    6   73 1    
    15    7    8 1    
    16    8    9 1    
    17    8   74 1    
    18    8   75 1    
    19    9   10 ar   
    20    9   14 ar   
    21   10   11 ar   
    22   10   76 1    
    23   11   12 ar   
    24   11   48 1    
    25   12   13 ar   
    26   12   77 1    
    27   13   14 ar   
    28   13   15 1    
    29   14   78 1    
    30   15   16 1    
    31   15   79 1    
    32   15   80 1    
    33   16   17 1    
    34   17   18 1    
    35   17   81 1    
    36   17   82 1    
    37   18   19 1    
    38   18   22 1    
    39   18   83 1    
    40   19   20 am   BACKBONE|DICT|INTERRES
    41   19   21 2    
    42   20   84 1    
    43   20   85 1    
    44   22   23 am   BACKBONE|DICT|INTERRES
    45   22   86 1    
    46   23   24 2    
    47   23   25 1    
    48   25   26 1    
    49   25   27 1    
    50   25   87 1    
    51   26   88 1    
    52   26   89 1    
    53   26   90 1    
    54   27   28 am   BACKBONE|DICT|INTERRES
    55   27   91 1    
    56   28   29 2    
    57   28   30 1    
    58   30   31 1    
    59   30   32 1    
    60   30   92 1    
    61   31   93 1    
    62   31   94 1    
    63   31   95 1    
    64   32   33 am   BACKBONE|DICT|INTERRES
    65   32   96 1    
    66   33   34 2    
    67   33   35 1    
    68   35   36 1    
    69   35   37 1    
    70   35   97 1    
    71   36   98 1    
    72   36   99 1    
    73   36  100 1    
    74   37   38 am   BACKBONE|DICT|INTERRES
    75   37  101 1    
    76   38   39 2    
    77   38   40 1    
    78   40   41 1    
    79   40   42 1    
    80   40  102 1    
    81   41  103 1    
    82   41  104 1    
    83   41  105 1    
    84   42   43 am   BACKBONE|DICT|INTERRES
    85   42  106 1    
    86   43   44 2    
    87   43   45 1    
    88   45   46 1    
    89   45   49 1    
    90   45  107 1    
    91   46   47 1    
    92   46  108 1    
    93   46  109 1    
    94   47   48 1    
    95   48  110 1    
    96   48  111 1    
    97   49   50 am   BACKBONE|DICT|INTERRES
    98   49  112 1    
    99   50   51 2    
   100   50   52 1    
   101   52   53 1    
   102   52   54 1    
   103   52  113 1    
   104   53  114 1    
   105   53  115 1    
   106   53  116 1    
   107   54   55 am   BACKBONE|DICT|INTERRES
   108   54  117 1    
   109   55   56 2    
   110   55   57 1    
   111   57   58 1    
   112   57   59 1    
   113   57  118 1    
   114   58  119 1    
   115   58  120 1    
   116   58  121 1    
   117   59   60 am   BACKBONE|DICT|INTERRES
   118   59  122 1    
   119   60   61 2    
   120   60   62 1    
   121   62   63 1    
   122   62   64 1    
   123   62  123 1    
   124   63  124 1    
   125   63  125 1    
   126   63  126 1    
   127   64   65 am   BACKBONE|DICT|INTERRES
   128   64  127 1    
   129   65   66 2    
@<TRIPOS>SUBSTRUCTURE
     1 UNK         1 GROUP             0       ****    0 ROOT    
