@<TRIPOS>MOLECULE
3R134
127   129    1
SMALL
USER_CHARGES


@<TRIPOS>ATOM
      1 CA         34.2863  -45.9292  -48.3513 C.3       0 UNK        -0.1968 
      2 C          33.9572  -45.2684  -49.6815 C.2       0 UNK         0.4852 
      3 O          33.2060  -44.2926  -49.7080 O.2       0 UNK        -0.5359 
      4 N          34.4966  -45.8045  -50.7860 N.am      1 UNK        -0.4300 
      5 CA         34.3544  -45.3497  -52.1795 C.3       1 UNK         0.0863 
      6 C6         34.8239  -43.8833  -52.4008 C.3       11 UNK        -0.0953 
      7 S7         35.6780  -43.6550  -53.9964 S.3       11 UNK        -0.2369 
      8 C8         34.7182  -42.3153  -54.7729 C.3       11 UNK         0.0226 
      9 C9         33.3862  -42.7997  -55.3280 C.ar      11 UNK        -0.0699 
     10 C10        33.3577  -43.6323  -56.4501 C.ar      11 UNK        -0.0804 
     11 C11        32.1421  -44.0871  -56.9710 C.ar      11 UNK        -0.0871 
     12 C12        30.9475  -43.6792  -56.3686 C.ar      11 UNK        -0.1008 
     13 C13        30.9547  -42.8093  -55.2675 C.ar      11 UNK        -0.0735 
     14 C14        32.1831  -42.3912  -54.7451 C.ar      11 UNK        -0.0945 
     15 C15        29.6704  -42.3080  -54.6011 C.3       11 UNK         0.0169 
     16 S16        28.1754  -42.4000  -55.6465 S.3       11 UNK        -0.2669 
     17 C17        26.9101  -42.8866  -54.4231 C.3       11 UNK        -0.0850 
     18 CA         26.9299  -44.4077  -54.0832 C.3       10 UNK         0.0855 
     19 C          25.8889  -44.7964  -52.9896 C.2       10 UNK         0.5543 
     20 N          25.2766  -45.9745  -53.0379 N.am      10 UNK        -0.7343 
     21 O          25.6540  -44.0293  -52.0594 O.2       10 UNK        -0.5027 
     22 N          26.9304  -45.2887  -55.2594 N.am      10 UNK        -0.4495 
     23 C          25.9730  -45.3693  -56.1913 C.2       10 UNK         0.4903 
     24 O          24.9787  -44.6441  -56.2331 O.2       10 UNK        -0.4860 
     25 CA         26.1423  -46.4694  -57.2521 C.3       9 UNK         0.0227 
     26 CB         26.8021  -45.8897  -58.5117 C.3       9 UNK        -0.1964 
     27 N          26.9053  -47.6362  -56.7911 N.am      9 UNK        -0.4231 
     28 C          26.5493  -48.4432  -55.7805 C.2       9 UNK         0.5014 
     29 O          25.5487  -48.2637  -55.0817 O.2       9 UNK        -0.5270 
     30 CA         27.4757  -49.6448  -55.5158 C.3       8 UNK         0.0284 
     31 CB         26.9517  -50.5794  -54.4046 C.3       8 UNK        -0.1977 
     32 N          27.7689  -50.4007  -56.7396 N.am      8 UNK        -0.4342 
     33 C          26.9079  -51.0317  -57.5518 C.2       8 UNK         0.5039 
     34 O          25.6938  -51.1096  -57.3562 O.2       8 UNK        -0.5547 
     35 CA         27.5381  -51.6913  -58.7947 C.3       7 UNK         0.0281 
     36 CB         26.4970  -52.1919  -59.8198 C.3       7 UNK        -0.1963 
     37 N          28.5482  -50.8300  -59.4252 N.am      7 UNK        -0.4444 
     38 C          28.3499  -49.6430  -60.0207 C.2       7 UNK         0.5104 
     39 O          27.2430  -49.1353  -60.2013 O.2       7 UNK        -0.5100 
     40 CA         29.6267  -48.8948  -60.4620 C.3       6 UNK         0.0396 
     41 CB         29.3660  -47.4420  -60.9107 C.3       6 UNK        -0.1801 
     42 N          30.6930  -48.9321  -59.4523 N.am      6 UNK        -0.4747 
     43 C          30.6100  -48.5250  -58.1753 C.2       6 UNK         0.5012 
     44 O          29.5978  -48.0379  -57.6659 O.2       6 UNK        -0.5003 
     45 CA         31.8668  -48.7406  -57.3079 C.3       5 UNK         0.0782 
     46 C46        32.4433  -47.4016  -56.7947 C.3       11 UNK        -0.0868 
     47 S47        33.2340  -46.4125  -58.1062 S.3       11 UNK        -0.2515 
     48 C48        32.1066  -44.9814  -58.2088 C.3       11 UNK         0.0199 
     49 N          31.6180  -49.6556  -56.1897 N.am      5 UNK        -0.4607 
     50 C          31.0896  -50.8835  -56.2445 C.2       4 UNK         0.5031 
     51 O          30.6826  -51.4049  -57.2830 O.2       4 UNK        -0.5119 
     52 CA         30.9577  -51.6681  -54.9246 C.3       4 UNK         0.0263 
     53 CB         32.2533  -52.4443  -54.6199 C.3       4 UNK        -0.1967 
     54 N          30.5144  -50.8840  -53.7593 N.am      4 UNK        -0.4237 
     55 C          31.1404  -49.8784  -53.1324 C.2       3 UNK         0.4908 
     56 O          32.2446  -49.4381  -53.4588 O.2       3 UNK        -0.5102 
     57 CA         30.4162  -49.2843  -51.9157 C.3       3 UNK         0.0241 
     58 CB         30.9018  -49.9558  -50.6209 C.3       3 UNK        -0.1971 
     59 N          30.6494  -47.8446  -51.8235 N.am      3 UNK        -0.4139 
     60 C          30.0479  -46.9250  -52.5885 C.2       2 UNK         0.5016 
     61 O          29.1696  -47.1795  -53.4149 O.2       2 UNK        -0.5319 
     62 CA         30.4897  -45.4664  -52.3840 C.3       2 UNK         0.0286 
     63 CB         29.6230  -44.7879  -51.3086 C.3       2 UNK        -0.1963 
     64 N          31.8968  -45.3049  -52.0116 N.am      2 UNK        -0.4790 
     65 C          32.9532  -45.6106  -52.7755 C.2       1 UNK         0.5024 
     66 O          32.8577  -46.1023  -53.8963 O.2       1 UNK        -0.4888 
     67 H67        34.7704  -45.2132  -47.6878 H         1 UNK         0.0892 
     68 H68        33.3731  -46.2769  -47.8692 H         1 UNK         0.0892 
     69 H69        34.9526  -46.7832  -48.4722 H         1 UNK         0.0892 
     70 H70        35.0780  -46.6247  -50.6794 H         1 UNK         0.3107 
     71 H71        35.0339  -46.0042  -52.7284 H         1 UNK         0.0773 
     72 H72        35.5444  -43.6004  -51.6319 H         1 UNK         0.0680 
     73 H73        33.9985  -43.1760  -52.2980 H         1 UNK         0.0680 
     74 H74        34.5762  -41.5063  -54.0546 H         1 UNK         0.0650 
     75 H75        35.3073  -41.8954  -55.5893 H         1 UNK         0.0650 
     76 H76        34.2873  -43.9362  -56.9114 H         1 UNK         0.1397 
     77 H77        30.0114  -44.0336  -56.7757 H         1 UNK         0.1363 
     78 H78        32.2025  -41.7352  -53.8854 H         1 UNK         0.1355 
     79 H79        29.5158  -42.8675  -53.6806 H         1 UNK         0.0707 
     80 H80        29.7984  -41.2668  -54.3012 H         1 UNK         0.0707 
     81 H81        25.9326  -42.5995  -54.8134 H         1 UNK         0.1034 
     82 H82        27.0543  -42.2888  -53.5211 H         1 UNK         0.1034 
     83 H83        27.8913  -44.6064  -53.6171 H         1 UNK         0.0482 
     84 H84        25.4588  -46.6289  -53.7904 H         1 UNK         0.3460 
     85 H85        24.6151  -46.2139  -52.3171 H         1 UNK         0.3460 
     86 H86        27.6879  -45.9564  -55.2970 H         1 UNK         0.2989 
     87 H87        25.1434  -46.8190  -57.5202 H         1 UNK         0.0559 
     88 H88        26.2690  -45.0051  -58.8632 H         1 UNK         0.0848 
     89 H89        26.7935  -46.6125  -59.3266 H         1 UNK         0.0848 
     90 H90        27.8357  -45.5954  -58.3249 H         1 UNK         0.0848 
     91 H91        27.7838  -47.8297  -57.2693 H         1 UNK         0.3144 
     92 H92        28.4257  -49.2274  -55.1782 H         1 UNK         0.0727 
     93 H93        27.6085  -51.4355  -54.2563 H         1 UNK         0.0790 
     94 H94        25.9571  -50.9624  -54.6361 H         1 UNK         0.0790 
     95 H95        26.8813  -50.0490  -53.4541 H         1 UNK         0.0790 
     96 H96        28.7357  -50.3842  -57.0397 H         1 UNK         0.3215 
     97 H97        28.0764  -52.5665  -58.4267 H         1 UNK         0.0863 
     98 H98        26.9780  -52.6544  -60.6815 H         1 UNK         0.0808 
     99 H99        25.8600  -51.3848  -60.1825 H         1 UNK         0.0808 
    100 H100       25.8427  -52.9416  -59.3734 H         1 UNK         0.0808 
    101 H101       29.5079  -51.1231  -59.2844 H         1 UNK         0.3118 
    102 H102       30.0030  -49.4392  -61.3293 H         1 UNK         0.0546 
    103 H103       29.0437  -46.8142  -60.0821 H         1 UNK         0.0828 
    104 H104       28.5935  -47.3961  -61.6792 H         1 UNK         0.0828 
    105 H105       30.2657  -46.9940  -61.3322 H         1 UNK         0.0828 
    106 H106       31.5640  -49.3387  -59.7659 H         1 UNK         0.3005 
    107 H107       32.6320  -49.2227  -57.9197 H         1 UNK         0.1257 
    108 H108       31.6803  -46.8175  -56.2755 H         1 UNK         0.0775 
    109 H109       33.2176  -47.5984  -56.0518 H         1 UNK         0.0775 
    110 H110       32.3833  -44.3815  -59.0766 H         1 UNK         0.0840 
    111 H111       31.0953  -45.3458  -58.3985 H         1 UNK         0.0840 
    112 H112       31.9181  -49.3326  -55.2726 H         1 UNK         0.2987 
    113 H113       30.1716  -52.4071  -55.0899 H         1 UNK         0.0785 
    114 H114       32.1406  -53.0721  -53.7361 H         1 UNK         0.0798 
    115 H115       33.1001  -51.7782  -54.4519 H         1 UNK         0.0798 
    116 H116       32.5183  -53.0998  -55.4507 H         1 UNK         0.0798 
    117 H117       29.6157  -51.1613  -53.3906 H         1 UNK         0.3079 
    118 H118       29.3420  -49.4552  -52.0180 H         1 UNK         0.0794 
    119 H119       30.7172  -51.0307  -50.6443 H         1 UNK         0.0786 
    120 H120       30.3826  -49.5582  -49.7486 H         1 UNK         0.0786 
    121 H121       31.9727  -49.8129  -50.4686 H         1 UNK         0.0786 
    122 H122       31.3918  -47.5393  -51.2126 H         1 UNK         0.3032 
    123 H123       30.3427  -44.9649  -53.3413 H         1 UNK         0.1094 
    124 H124       29.8553  -45.1649  -50.3118 H         1 UNK         0.0794 
    125 H125       29.7758  -43.7087  -51.2992 H         1 UNK         0.0794 
    126 H126       28.5604  -44.9658  -51.4716 H         1 UNK         0.0794 
    127 H127       32.0972  -44.8847  -51.1065 H         1 UNK         0.3016 
@<TRIPOS>BOND
     1    1    2 1    
     2    1   67 1    
     3    1   68 1    
     4    1   69 1    
     5    2    3 2    
     6    2    4 am   BACKBONE|DICT|INTERRES
     7    4    5 1    
     8    4   70 1    
     9    5    6 1    
    10    5   65 1    
    11    5   71 1    
    12    6    7 1    
    13    6   72 1    
    14    6   73 1    
    15    7    8 1    
    16    8    9 1    
    17    8   74 1    
    18    8   75 1    
    19    9   10 ar   
    20    9   14 ar   
    21   10   11 ar   
    22   10   76 1    
    23   11   12 ar   
    24   11   48 1    
    25   12   13 ar   
    26   12   77 1    
    27   13   14 ar   
    28   13   15 1    
    29   14   78 1    
    30   15   16 1    
    31   15   79 1    
    32   15   80 1    
    33   16   17 1    
    34   17   18 1    
    35   17   81 1    
    36   17   82 1    
    37   18   19 1    
    38   18   22 1    
    39   18   83 1    
    40   19   20 am   BACKBONE|DICT|INTERRES
    41   19   21 2    
    42   20   84 1    
    43   20   85 1    
    44   22   23 am   BACKBONE|DICT|INTERRES
    45   22   86 1    
    46   23   24 2    
    47   23   25 1    
    48   25   26 1    
    49   25   27 1    
    50   25   87 1    
    51   26   88 1    
    52   26   89 1    
    53   26   90 1    
    54   27   28 am   BACKBONE|DICT|INTERRES
    55   27   91 1    
    56   28   29 2    
    57   28   30 1    
    58   30   31 1    
    59   30   32 1    
    60   30   92 1    
    61   31   93 1    
    62   31   94 1    
    63   31   95 1    
    64   32   33 am   BACKBONE|DICT|INTERRES
    65   32   96 1    
    66   33   34 2    
    67   33   35 1    
    68   35   36 1    
    69   35   37 1    
    70   35   97 1    
    71   36   98 1    
    72   36   99 1    
    73   36  100 1    
    74   37   38 am   BACKBONE|DICT|INTERRES
    75   37  101 1    
    76   38   39 2    
    77   38   40 1    
    78   40   41 1    
    79   40   42 1    
    80   40  102 1    
    81   41  103 1    
    82   41  104 1    
    83   41  105 1    
    84   42   43 am   BACKBONE|DICT|INTERRES
    85   42  106 1    
    86   43   44 2    
    87   43   45 1    
    88   45   46 1    
    89   45   49 1    
    90   45  107 1    
    91   46   47 1    
    92   46  108 1    
    93   46  109 1    
    94   47   48 1    
    95   48  110 1    
    96   48  111 1    
    97   49   50 am   BACKBONE|DICT|INTERRES
    98   49  112 1    
    99   50   51 2    
   100   50   52 1    
   101   52   53 1    
   102   52   54 1    
   103   52  113 1    
   104   53  114 1    
   105   53  115 1    
   106   53  116 1    
   107   54   55 am   BACKBONE|DICT|INTERRES
   108   54  117 1    
   109   55   56 2    
   110   55   57 1    
   111   57   58 1    
   112   57   59 1    
   113   57  118 1    
   114   58  119 1    
   115   58  120 1    
   116   58  121 1    
   117   59   60 am   BACKBONE|DICT|INTERRES
   118   59  122 1    
   119   60   61 2    
   120   60   62 1    
   121   62   63 1    
   122   62   64 1    
   123   62  123 1    
   124   63  124 1    
   125   63  125 1    
   126   63  126 1    
   127   64   65 am   BACKBONE|DICT|INTERRES
   128   64  127 1    
   129   65   66 2    
@<TRIPOS>SUBSTRUCTURE
     1 UNK         1 GROUP             0       ****    0 ROOT    
