@<TRIPOS>MOLECULE
3R134
127   129    1
SMALL
USER_CHARGES


@<TRIPOS>ATOM
      1 CA         32.0226  -47.1321  -48.5866 C.3       0 UNK        -0.1968 
      2 C          32.5577  -47.1529  -50.0100 C.2       0 UNK         0.4852 
      3 O          32.2750  -48.0926  -50.7539 O.2       0 UNK        -0.5359 
      4 N          33.3148  -46.1178  -50.4016 N.am      1 UNK        -0.4300 
      5 CA         33.9214  -45.9616  -51.7312 C.3       1 UNK         0.0863 
      6 C6         34.8626  -44.7326  -51.7989 C.3       11 UNK        -0.0953 
      7 S7         34.0428  -43.1410  -51.4189 S.3       11 UNK        -0.2369 
      8 C8         34.5234  -42.1045  -52.8372 C.3       11 UNK         0.0226 
      9 C9         33.8491  -42.5246  -54.1371 C.ar      11 UNK        -0.0699 
     10 C10        34.5559  -43.2653  -55.0882 C.ar      11 UNK        -0.0804 
     11 C11        33.9609  -43.6161  -56.3026 C.ar      11 UNK        -0.0871 
     12 C12        32.6508  -43.2088  -56.5710 C.ar      11 UNK        -0.1008 
     13 C13        31.9273  -42.4722  -55.6267 C.ar      11 UNK        -0.0735 
     14 C14        32.5336  -42.1359  -54.4102 C.ar      11 UNK        -0.0945 
     15 C15        30.5063  -42.0064  -55.9253 C.3       11 UNK         0.0169 
     16 S16        29.4031  -43.3687  -56.4261 S.3       11 UNK        -0.2669 
     17 C17        27.7810  -42.6157  -56.0590 C.3       11 UNK        -0.0850 
     18 CA         26.5715  -43.5349  -56.3758 C.3       10 UNK         0.0855 
     19 C          26.2700  -43.6141  -57.9034 C.2       10 UNK         0.5543 
     20 N          26.1725  -44.7922  -58.5052 N.am      10 UNK        -0.7343 
     21 O          26.1007  -42.5832  -58.5502 O.2       10 UNK        -0.5027 
     22 N          26.6680  -44.8240  -55.6646 N.am      10 UNK        -0.4495 
     23 C          25.6311  -45.6168  -55.3737 C.2       10 UNK         0.4903 
     24 O          24.4636  -45.3699  -55.6829 O.2       10 UNK        -0.4860 
     25 CA         25.9386  -46.9084  -54.6103 C.3       9 UNK         0.0227 
     26 CB         25.6125  -46.7686  -53.1129 C.3       9 UNK        -0.1964 
     27 N          25.1484  -47.9729  -55.2215 N.am      9 UNK        -0.4231 
     28 C          25.4197  -49.2815  -55.1701 C.2       9 UNK         0.5014 
     29 O          26.3145  -49.7681  -54.4810 O.2       9 UNK        -0.5270 
     30 CA         24.5942  -50.2092  -56.0742 C.3       8 UNK         0.0284 
     31 CB         23.2540  -49.6057  -56.5450 C.3       8 UNK        -0.1977 
     32 N          25.4226  -50.5149  -57.2378 N.am      8 UNK        -0.4342 
     33 C          25.9513  -51.7073  -57.5395 C.2       8 UNK         0.5039 
     34 O          25.6897  -52.7525  -56.9422 O.2       8 UNK        -0.5547 
     35 CA         26.9499  -51.7365  -58.7141 C.3       7 UNK         0.0281 
     36 CB         26.2297  -52.0934  -60.0249 C.3       7 UNK        -0.1963 
     37 N          27.6671  -50.4655  -58.8814 N.am      7 UNK        -0.4444 
     38 C          28.6297  -50.0308  -58.0557 C.2       7 UNK         0.5104 
     39 O          29.0876  -50.6997  -57.1289 O.2       7 UNK        -0.5100 
     40 CA         29.1112  -48.5890  -58.2881 C.3       6 UNK         0.0396 
     41 CB         28.0608  -47.5894  -57.7836 C.3       6 UNK        -0.1801 
     42 N          30.3791  -48.3148  -57.6082 N.am      6 UNK        -0.4747 
     43 C          31.5787  -48.5976  -58.1331 C.2       6 UNK         0.5012 
     44 O          31.7307  -49.1357  -59.2316 O.2       6 UNK        -0.5003 
     45 CA         32.8220  -48.1824  -57.3253 C.3       5 UNK         0.0782 
     46 C46        33.0487  -46.6542  -57.4144 C.3       11 UNK        -0.0868 
     47 S47        34.7433  -46.1965  -56.9275 S.3       11 UNK        -0.2515 
     48 C48        34.7473  -44.4211  -57.3259 C.3       11 UNK         0.0199 
     49 N          32.7691  -48.6547  -55.9396 N.am      5 UNK        -0.4607 
     50 C          32.9381  -49.9305  -55.5662 C.2       4 UNK         0.5031 
     51 O          33.1561  -50.8521  -56.3532 O.2       4 UNK        -0.5119 
     52 CA         32.8693  -50.2315  -54.0596 C.3       4 UNK         0.0263 
     53 CB         34.1991  -49.8900  -53.3672 C.3       4 UNK        -0.1967 
     54 N          31.7736  -49.5091  -53.4143 N.am      4 UNK        -0.4237 
     55 C          30.4847  -49.8663  -53.5025 C.2       3 UNK         0.4908 
     56 O          30.1062  -50.9187  -54.0156 O.2       3 UNK        -0.5102 
     57 CA         29.4384  -48.9055  -52.9122 C.3       3 UNK         0.0241 
     58 CB         28.9842  -49.3760  -51.5209 C.3       3 UNK        -0.1971 
     59 N          29.9152  -47.5256  -52.8221 N.am      3 UNK        -0.4139 
     60 C          30.0068  -46.6831  -53.8595 C.2       2 UNK         0.5016 
     61 O          29.6808  -46.9640  -55.0123 O.2       2 UNK        -0.5319 
     62 CA         30.5915  -45.2958  -53.5561 C.3       2 UNK         0.0286 
     63 CB         29.5119  -44.3646  -52.9803 C.3       2 UNK        -0.1963 
     64 N          31.7258  -45.3376  -52.6346 N.am      2 UNK        -0.4790 
     65 C          32.8842  -45.9681  -52.8739 C.2       1 UNK         0.5024 
     66 O          33.1192  -46.5943  -53.9059 O.2       1 UNK        -0.4888 
     67 H67        32.3841  -48.0020  -48.0393 H         1 UNK         0.0892 
     68 H68        30.9335  -47.1636  -48.5954 H         1 UNK         0.0892 
     69 H69        32.3327  -46.2378  -48.0466 H         1 UNK         0.0892 
     70 H70        33.5020  -45.3662  -49.7529 H         1 UNK         0.3107 
     71 H71        34.5429  -46.8464  -51.8849 H         1 UNK         0.0773 
     72 H72        35.3471  -44.6853  -52.7744 H         1 UNK         0.0680 
     73 H73        35.6757  -44.8607  -51.0829 H         1 UNK         0.0680 
     74 H74        35.6094  -42.1211  -52.9423 H         1 UNK         0.0650 
     75 H75        34.2589  -41.0698  -52.6150 H         1 UNK         0.0650 
     76 H76        35.5745  -43.5681  -54.8881 H         1 UNK         0.1397 
     77 H77        32.1887  -43.4687  -57.5136 H         1 UNK         0.1363 
     78 H78        31.9885  -41.5585  -53.6761 H         1 UNK         0.1355 
     79 H79        30.5332  -41.2589  -56.7191 H         1 UNK         0.0707 
     80 H80        30.0842  -41.5125  -55.0488 H         1 UNK         0.0707 
     81 H81        27.7603  -42.3562  -54.9995 H         1 UNK         0.1034 
     82 H82        27.6992  -41.6656  -56.5910 H         1 UNK         0.1034 
     83 H83        25.6979  -43.0273  -55.9618 H         1 UNK         0.0482 
     84 H84        26.2801  -45.6388  -57.9754 H         1 UNK         0.3460 
     85 H85        25.9688  -44.8271  -59.4914 H         1 UNK         0.3460 
     86 H86        27.6055  -45.1222  -55.4335 H         1 UNK         0.2989 
     87 H87        26.9984  -47.1426  -54.7150 H         1 UNK         0.0559 
     88 H88        25.8596  -47.6789  -52.5662 H         1 UNK         0.0848 
     89 H89        26.1862  -45.9572  -52.6633 H         1 UNK         0.0848 
     90 H90        24.5556  -46.5547  -52.9489 H         1 UNK         0.0848 
     91 H91        24.3854  -47.6435  -55.8001 H         1 UNK         0.3144 
     92 H92        24.3798  -51.1130  -55.5000 H         1 UNK         0.0727 
     93 H93        22.6765  -50.3418  -57.1048 H         1 UNK         0.0790 
     94 H94        23.3891  -48.7392  -57.1935 H         1 UNK         0.0790 
     95 H95        22.6403  -49.2991  -55.6966 H         1 UNK         0.0790 
     96 H96        25.7280  -49.7237  -57.7837 H         1 UNK         0.3215 
     97 H97        27.6821  -52.5196  -58.5034 H         1 UNK         0.0863 
     98 H98        25.4864  -51.3432  -60.2977 H         1 UNK         0.0808 
     99 H99        25.7099  -53.0483  -59.9350 H         1 UNK         0.0808 
    100 H100       26.9336  -52.1872  -60.8522 H         1 UNK         0.0808 
    101 H101       27.3719  -49.8720  -59.6441 H         1 UNK         0.3118 
    102 H102       29.2402  -48.4340  -59.3615 H         1 UNK         0.0546 
    103 H103       27.8101  -47.7815  -56.7418 H         1 UNK         0.0828 
    104 H104       27.1404  -47.6573  -58.3634 H         1 UNK         0.0828 
    105 H105       28.4223  -46.5632  -57.8583 H         1 UNK         0.0828 
    106 H106       30.3152  -47.9111  -56.6773 H         1 UNK         0.3005 
    107 H107       33.6718  -48.6729  -57.8063 H         1 UNK         0.1257 
    108 H108       32.3351  -46.1207  -56.7828 H         1 UNK         0.0775 
    109 H109       32.8914  -46.2951  -58.4337 H         1 UNK         0.0775 
    110 H110       35.7797  -44.0691  -57.3500 H         1 UNK         0.0840 
    111 H111       34.3522  -44.2654  -58.3310 H         1 UNK         0.0840 
    112 H112       32.6786  -47.9389  -55.2241 H         1 UNK         0.2987 
    113 H113       32.6963  -51.3031  -53.9385 H         1 UNK         0.0785 
    114 H114       34.1549  -50.0983  -52.2980 H         1 UNK         0.0798 
    115 H115       35.0143  -50.4844  -53.7816 H         1 UNK         0.0798 
    116 H116       34.4680  -48.8415  -53.4930 H         1 UNK         0.0798 
    117 H117       32.0107  -48.6689  -52.9011 H         1 UNK         0.3079 
    118 H118       28.5742  -48.9221  -53.5777 H         1 UNK         0.0794 
    119 H119       28.1945  -48.7371  -51.1251 H         1 UNK         0.0786 
    120 H120       29.8078  -49.3793  -50.8058 H         1 UNK         0.0786 
    121 H121       28.5859  -50.3905  -51.5661 H         1 UNK         0.0786 
    122 H122       30.2680  -47.2256  -51.9242 H         1 UNK         0.3032 
    123 H123       30.9528  -44.8861  -54.5007 H         1 UNK         0.1094 
    124 H124       28.6279  -44.3442  -53.6165 H         1 UNK         0.0794 
    125 H125       29.1875  -44.6820  -51.9887 H         1 UNK         0.0794 
    126 H126       29.8766  -43.3402  -52.9042 H         1 UNK         0.0794 
    127 H127       31.6304  -44.8388  -51.7620 H         1 UNK         0.3016 
@<TRIPOS>BOND
     1    1    2 1    
     2    1   67 1    
     3    1   68 1    
     4    1   69 1    
     5    2    3 2    
     6    2    4 am   BACKBONE|DICT|INTERRES
     7    4    5 1    
     8    4   70 1    
     9    5    6 1    
    10    5   65 1    
    11    5   71 1    
    12    6    7 1    
    13    6   72 1    
    14    6   73 1    
    15    7    8 1    
    16    8    9 1    
    17    8   74 1    
    18    8   75 1    
    19    9   10 ar   
    20    9   14 ar   
    21   10   11 ar   
    22   10   76 1    
    23   11   12 ar   
    24   11   48 1    
    25   12   13 ar   
    26   12   77 1    
    27   13   14 ar   
    28   13   15 1    
    29   14   78 1    
    30   15   16 1    
    31   15   79 1    
    32   15   80 1    
    33   16   17 1    
    34   17   18 1    
    35   17   81 1    
    36   17   82 1    
    37   18   19 1    
    38   18   22 1    
    39   18   83 1    
    40   19   20 am   BACKBONE|DICT|INTERRES
    41   19   21 2    
    42   20   84 1    
    43   20   85 1    
    44   22   23 am   BACKBONE|DICT|INTERRES
    45   22   86 1    
    46   23   24 2    
    47   23   25 1    
    48   25   26 1    
    49   25   27 1    
    50   25   87 1    
    51   26   88 1    
    52   26   89 1    
    53   26   90 1    
    54   27   28 am   BACKBONE|DICT|INTERRES
    55   27   91 1    
    56   28   29 2    
    57   28   30 1    
    58   30   31 1    
    59   30   32 1    
    60   30   92 1    
    61   31   93 1    
    62   31   94 1    
    63   31   95 1    
    64   32   33 am   BACKBONE|DICT|INTERRES
    65   32   96 1    
    66   33   34 2    
    67   33   35 1    
    68   35   36 1    
    69   35   37 1    
    70   35   97 1    
    71   36   98 1    
    72   36   99 1    
    73   36  100 1    
    74   37   38 am   BACKBONE|DICT|INTERRES
    75   37  101 1    
    76   38   39 2    
    77   38   40 1    
    78   40   41 1    
    79   40   42 1    
    80   40  102 1    
    81   41  103 1    
    82   41  104 1    
    83   41  105 1    
    84   42   43 am   BACKBONE|DICT|INTERRES
    85   42  106 1    
    86   43   44 2    
    87   43   45 1    
    88   45   46 1    
    89   45   49 1    
    90   45  107 1    
    91   46   47 1    
    92   46  108 1    
    93   46  109 1    
    94   47   48 1    
    95   48  110 1    
    96   48  111 1    
    97   49   50 am   BACKBONE|DICT|INTERRES
    98   49  112 1    
    99   50   51 2    
   100   50   52 1    
   101   52   53 1    
   102   52   54 1    
   103   52  113 1    
   104   53  114 1    
   105   53  115 1    
   106   53  116 1    
   107   54   55 am   BACKBONE|DICT|INTERRES
   108   54  117 1    
   109   55   56 2    
   110   55   57 1    
   111   57   58 1    
   112   57   59 1    
   113   57  118 1    
   114   58  119 1    
   115   58  120 1    
   116   58  121 1    
   117   59   60 am   BACKBONE|DICT|INTERRES
   118   59  122 1    
   119   60   61 2    
   120   60   62 1    
   121   62   63 1    
   122   62   64 1    
   123   62  123 1    
   124   63  124 1    
   125   63  125 1    
   126   63  126 1    
   127   64   65 am   BACKBONE|DICT|INTERRES
   128   64  127 1    
   129   65   66 2    
@<TRIPOS>SUBSTRUCTURE
     1 UNK         1 GROUP             0       ****    0 ROOT    
