@<TRIPOS>MOLECULE
3R134
127   129    1
SMALL
USER_CHARGES


@<TRIPOS>ATOM
      1 CA         30.3342  -46.0226  -49.9123 C.3       0 UNK        -0.1968 
      2 C          31.4770  -45.8708  -50.9049 C.2       0 UNK         0.4852 
      3 O          31.3141  -46.2230  -52.0707 O.2       0 UNK        -0.5359 
      4 N          32.6303  -45.3648  -50.4448 N.am      1 UNK        -0.4300 
      5 CA         33.8771  -45.1111  -51.1885 C.3       1 UNK         0.0863 
      6 C6         33.7206  -44.1830  -52.4242 C.3       11 UNK        -0.0953 
      7 S7         33.0401  -42.5429  -51.9970 S.3       11 UNK        -0.2369 
      8 C8         33.2324  -41.6386  -53.5688 C.3       11 UNK         0.0226 
      9 C9         32.3309  -42.2053  -54.6558 C.ar      11 UNK        -0.0699 
     10 C10        32.8283  -43.1585  -55.5481 C.ar      11 UNK        -0.0804 
     11 C11        31.9868  -43.7581  -56.4887 C.ar      11 UNK        -0.0871 
     12 C12        30.6479  -43.3624  -56.5624 C.ar      11 UNK        -0.1008 
     13 C13        30.1471  -42.3766  -55.7051 C.ar      11 UNK        -0.0735 
     14 C14        30.9940  -41.8045  -54.7494 C.ar      11 UNK        -0.0945 
     15 C15        28.6810  -41.9704  -55.7819 C.3       11 UNK         0.0169 
     16 S16        28.2467  -41.3106  -57.4245 S.3       11 UNK        -0.2669 
     17 C17        26.4249  -41.1772  -57.3100 C.3       11 UNK        -0.0850 
     18 CA         25.6477  -42.3614  -57.9518 C.3       10 UNK         0.0855 
     19 C          25.8112  -42.4149  -59.4992 C.2       10 UNK         0.5543 
     20 N          25.1026  -41.5567  -60.2210 N.am      10 UNK        -0.7343 
     21 O          26.5863  -43.1953  -60.0484 O.2       10 UNK        -0.5027 
     22 N          25.9516  -43.6216  -57.2613 N.am      10 UNK        -0.4495 
     23 C          25.3242  -44.7901  -57.4299 C.2       10 UNK         0.4903 
     24 O          24.3698  -44.9720  -58.1891 O.2       10 UNK        -0.4860 
     25 CA         25.8124  -45.9350  -56.5300 C.3       9 UNK         0.0227 
     26 CB         24.8182  -46.1945  -55.3867 C.3       9 UNK        -0.1964 
     27 N          26.0284  -47.1767  -57.2696 N.am      9 UNK        -0.4231 
     28 C          27.0067  -47.3820  -58.1596 C.2       9 UNK         0.5014 
     29 O          27.8267  -46.5242  -58.4939 O.2       9 UNK        -0.5270 
     30 CA         27.1020  -48.8075  -58.7326 C.3       8 UNK         0.0284 
     31 CB         28.1951  -48.9436  -59.8097 C.3       8 UNK        -0.1977 
     32 N          27.3656  -49.7737  -57.6636 N.am      8 UNK        -0.4342 
     33 C          26.4325  -50.3434  -56.8902 C.2       8 UNK         0.5039 
     34 O          25.2272  -50.1131  -57.0022 O.2       8 UNK        -0.5547 
     35 CA         26.9262  -51.2997  -55.7922 C.3       7 UNK         0.0281 
     36 CB         27.6341  -52.5312  -56.3833 C.3       7 UNK        -0.1963 
     37 N          27.8160  -50.6160  -54.8545 N.am      7 UNK        -0.4444 
     38 C          27.4072  -49.7670  -53.9003 C.2       7 UNK         0.5104 
     39 O          26.2249  -49.5430  -53.6394 O.2       7 UNK        -0.5100 
     40 CA         28.5034  -49.0294  -53.1099 C.3       6 UNK         0.0396 
     41 CB         28.9394  -49.8456  -51.8836 C.3       6 UNK        -0.1801 
     42 N          29.6743  -48.7186  -53.9309 N.am      6 UNK        -0.4747 
     43 C          29.6715  -47.8608  -54.9604 C.2       6 UNK         0.5012 
     44 O          28.6984  -47.1751  -55.2641 O.2       6 UNK        -0.5003 
     45 CA         30.9478  -47.7715  -55.8181 C.3       5 UNK         0.0782 
     46 C46        31.8903  -46.6764  -55.2784 C.3       11 UNK        -0.0868 
     47 S47        33.2275  -46.2646  -56.4497 S.3       11 UNK        -0.2515 
     48 C48        32.5061  -44.8729  -57.3887 C.3       11 UNK         0.0199 
     49 N          31.6283  -49.0642  -55.9341 N.am      5 UNK        -0.4607 
     50 C          31.1652  -50.1154  -56.6200 C.2       4 UNK         0.5031 
     51 O          30.1068  -50.1128  -57.2451 O.2       4 UNK        -0.5119 
     52 CA         32.0107  -51.3978  -56.5725 C.3       4 UNK         0.0263 
     53 CB         33.1429  -51.3367  -57.6098 C.3       4 UNK        -0.1967 
     54 N          32.5716  -51.6457  -55.2422 N.am      4 UNK        -0.4237 
     55 C          31.8412  -51.9766  -54.1673 C.2       3 UNK         0.4908 
     56 O          30.6253  -52.1703  -54.1984 O.2       3 UNK        -0.5102 
     57 CA         32.5907  -52.0621  -52.8244 C.3       3 UNK         0.0241 
     58 CB         33.2469  -53.4419  -52.6558 C.3       3 UNK        -0.1971 
     59 N          33.5990  -51.0070  -52.6461 N.am      3 UNK        -0.4139 
     60 C          33.3156  -49.6975  -52.6212 C.2       2 UNK         0.5016 
     61 O          32.1773  -49.2506  -52.7626 O.2       2 UNK        -0.5319 
     62 CA         34.4886  -48.7237  -52.4614 C.3       2 UNK         0.0286 
     63 CB         35.2886  -48.6152  -53.7746 C.3       2 UNK        -0.1963 
     64 N          33.9587  -47.4130  -52.0842 N.am      2 UNK        -0.4790 
     65 C          34.6485  -46.4007  -51.5491 C.2       1 UNK         0.5024 
     66 O          35.8567  -46.4587  -51.3153 O.2       1 UNK        -0.4888 
     67 H67        30.6103  -45.6834  -48.9141 H         1 UNK         0.0892 
     68 H68        29.4738  -45.4417  -50.2432 H         1 UNK         0.0892 
     69 H69        30.0340  -47.0680  -49.8462 H         1 UNK         0.0892 
     70 H70        32.6829  -45.1228  -49.4652 H         1 UNK         0.3107 
     71 H71        34.5157  -44.5812  -50.4795 H         1 UNK         0.0773 
     72 H72        33.0792  -44.6469  -53.1745 H         1 UNK         0.0680 
     73 H73        34.6884  -44.0275  -52.9046 H         1 UNK         0.0680 
     74 H74        34.2776  -41.6674  -53.8805 H         1 UNK         0.0650 
     75 H75        32.9917  -40.5876  -53.4028 H         1 UNK         0.0650 
     76 H76        33.8595  -43.4760  -55.4756 H         1 UNK         0.1397 
     77 H77        29.9861  -43.8273  -57.2812 H         1 UNK         0.1363 
     78 H78        30.6095  -41.0654  -54.0599 H         1 UNK         0.1355 
     79 H79        28.4456  -41.2189  -55.0266 H         1 UNK         0.0707 
     80 H80        28.0680  -42.8424  -55.5538 H         1 UNK         0.0707 
     81 H81        26.1377  -41.0726  -56.2624 H         1 UNK         0.1034 
     82 H82        26.1270  -40.2375  -57.7786 H         1 UNK         0.1034 
     83 H83        24.5869  -42.1803  -57.7667 H         1 UNK         0.0482 
     84 H84        25.2007  -41.5641  -61.2243 H         1 UNK         0.3460 
     85 H85        24.4661  -40.9069  -59.7861 H         1 UNK         0.3460 
     86 H86        26.7543  -43.5958  -56.6527 H         1 UNK         0.2989 
     87 H87        26.7654  -45.6436  -56.0851 H         1 UNK         0.0559 
     88 H88        24.6541  -45.2907  -54.7985 H         1 UNK         0.0848 
     89 H89        25.1909  -46.9604  -54.7054 H         1 UNK         0.0848 
     90 H90        23.8473  -46.5211  -55.7617 H         1 UNK         0.0848 
     91 H91        25.4168  -47.9566  -57.0576 H         1 UNK         0.3144 
     92 H92        26.1438  -49.0382  -59.2031 H         1 UNK         0.0727 
     93 H93        28.2276  -49.9545  -60.2161 H         1 UNK         0.0790 
     94 H94        29.1844  -48.7106  -59.4135 H         1 UNK         0.0790 
     95 H95        28.0087  -48.2642  -60.6424 H         1 UNK         0.0790 
     96 H96        28.3500  -49.9646  -57.4721 H         1 UNK         0.3215 
     97 H97        26.0510  -51.6533  -55.2423 H         1 UNK         0.0863 
     98 H98        27.9100  -53.2388  -55.6011 H         1 UNK         0.0808 
     99 H99        28.5431  -52.2668  -56.9234 H         1 UNK         0.0808 
    100 H100       26.9814  -53.0573  -57.0811 H         1 UNK         0.0808 
    101 H101       28.8112  -50.7541  -54.9751 H         1 UNK         0.3118 
    102 H102       28.0838  -48.0850  -52.7569 H         1 UNK         0.0546 
    103 H103       29.3751  -50.8031  -52.1700 H         1 UNK         0.0828 
    104 H104       28.0906  -50.0536  -51.2312 H         1 UNK         0.0828 
    105 H105       29.6802  -49.3056  -51.2935 H         1 UNK         0.0828 
    106 H106       30.5587  -49.1411  -53.6543 H         1 UNK         0.3005 
    107 H107       30.6197  -47.4768  -56.8182 H         1 UNK         0.1257 
    108 H108       32.3554  -47.0080  -54.3508 H         1 UNK         0.0775 
    109 H109       31.3341  -45.7772  -55.0113 H         1 UNK         0.0775 
    110 H110       33.2643  -44.4661  -58.0588 H         1 UNK         0.0840 
    111 H111       31.7086  -45.2599  -58.0252 H         1 UNK         0.0840 
    112 H112       32.4898  -49.1583  -55.4195 H         1 UNK         0.2987 
    113 H113       31.3576  -52.2353  -56.8280 H         1 UNK         0.0785 
    114 H114       32.7434  -51.1704  -58.6114 H         1 UNK         0.0798 
    115 H115       33.7055  -52.2701  -57.6385 H         1 UNK         0.0798 
    116 H116       33.8437  -50.5273  -57.4007 H         1 UNK         0.0798 
    117 H117       33.5665  -51.5183  -55.1293 H         1 UNK         0.3079 
    118 H118       31.8478  -51.9414  -52.0328 H         1 UNK         0.0794 
    119 H119       33.6913  -53.5515  -51.6663 H         1 UNK         0.0786 
    120 H120       34.0288  -53.6136  -53.3966 H         1 UNK         0.0786 
    121 H121       32.5110  -54.2395  -52.7678 H         1 UNK         0.0786 
    122 H122       34.5567  -51.3060  -52.5276 H         1 UNK         0.3032 
    123 H123       35.1344  -49.0894  -51.6600 H         1 UNK         0.1094 
    124 H124       34.6713  -48.2432  -54.5924 H         1 UNK         0.0794 
    125 H125       36.1391  -47.9415  -53.6702 H         1 UNK         0.0794 
    126 H126       35.6868  -49.5837  -54.0788 H         1 UNK         0.0794 
    127 H127       32.9528  -47.3031  -52.2152 H         1 UNK         0.3016 
@<TRIPOS>BOND
     1    1    2 1    
     2    1   67 1    
     3    1   68 1    
     4    1   69 1    
     5    2    3 2    
     6    2    4 am   BACKBONE|DICT|INTERRES
     7    4    5 1    
     8    4   70 1    
     9    5    6 1    
    10    5   65 1    
    11    5   71 1    
    12    6    7 1    
    13    6   72 1    
    14    6   73 1    
    15    7    8 1    
    16    8    9 1    
    17    8   74 1    
    18    8   75 1    
    19    9   10 ar   
    20    9   14 ar   
    21   10   11 ar   
    22   10   76 1    
    23   11   12 ar   
    24   11   48 1    
    25   12   13 ar   
    26   12   77 1    
    27   13   14 ar   
    28   13   15 1    
    29   14   78 1    
    30   15   16 1    
    31   15   79 1    
    32   15   80 1    
    33   16   17 1    
    34   17   18 1    
    35   17   81 1    
    36   17   82 1    
    37   18   19 1    
    38   18   22 1    
    39   18   83 1    
    40   19   20 am   BACKBONE|DICT|INTERRES
    41   19   21 2    
    42   20   84 1    
    43   20   85 1    
    44   22   23 am   BACKBONE|DICT|INTERRES
    45   22   86 1    
    46   23   24 2    
    47   23   25 1    
    48   25   26 1    
    49   25   27 1    
    50   25   87 1    
    51   26   88 1    
    52   26   89 1    
    53   26   90 1    
    54   27   28 am   BACKBONE|DICT|INTERRES
    55   27   91 1    
    56   28   29 2    
    57   28   30 1    
    58   30   31 1    
    59   30   32 1    
    60   30   92 1    
    61   31   93 1    
    62   31   94 1    
    63   31   95 1    
    64   32   33 am   BACKBONE|DICT|INTERRES
    65   32   96 1    
    66   33   34 2    
    67   33   35 1    
    68   35   36 1    
    69   35   37 1    
    70   35   97 1    
    71   36   98 1    
    72   36   99 1    
    73   36  100 1    
    74   37   38 am   BACKBONE|DICT|INTERRES
    75   37  101 1    
    76   38   39 2    
    77   38   40 1    
    78   40   41 1    
    79   40   42 1    
    80   40  102 1    
    81   41  103 1    
    82   41  104 1    
    83   41  105 1    
    84   42   43 am   BACKBONE|DICT|INTERRES
    85   42  106 1    
    86   43   44 2    
    87   43   45 1    
    88   45   46 1    
    89   45   49 1    
    90   45  107 1    
    91   46   47 1    
    92   46  108 1    
    93   46  109 1    
    94   47   48 1    
    95   48  110 1    
    96   48  111 1    
    97   49   50 am   BACKBONE|DICT|INTERRES
    98   49  112 1    
    99   50   51 2    
   100   50   52 1    
   101   52   53 1    
   102   52   54 1    
   103   52  113 1    
   104   53  114 1    
   105   53  115 1    
   106   53  116 1    
   107   54   55 am   BACKBONE|DICT|INTERRES
   108   54  117 1    
   109   55   56 2    
   110   55   57 1    
   111   57   58 1    
   112   57   59 1    
   113   57  118 1    
   114   58  119 1    
   115   58  120 1    
   116   58  121 1    
   117   59   60 am   BACKBONE|DICT|INTERRES
   118   59  122 1    
   119   60   61 2    
   120   60   62 1    
   121   62   63 1    
   122   62   64 1    
   123   62  123 1    
   124   63  124 1    
   125   63  125 1    
   126   63  126 1    
   127   64   65 am   BACKBONE|DICT|INTERRES
   128   64  127 1    
   129   65   66 2    
@<TRIPOS>SUBSTRUCTURE
     1 UNK         1 GROUP             0       ****    0 ROOT    
