@<TRIPOS>MOLECULE
3R134
127   129    1
SMALL
USER_CHARGES


@<TRIPOS>ATOM
      1 CA         30.0921  -45.7096  -50.0135 C.3       0 UNK        -0.1968 
      2 C          31.2943  -45.6184  -50.9414 C.2       0 UNK         0.4852 
      3 O          31.1839  -45.9845  -52.1095 O.2       0 UNK        -0.5359 
      4 N          32.4364  -45.1438  -50.4231 N.am      1 UNK        -0.4300 
      5 CA         33.7333  -44.9529  -51.0946 C.3       1 UNK         0.0863 
      6 C6         33.6894  -44.0436  -52.3511 C.3       11 UNK        -0.0953 
      7 S7         33.0868  -42.3607  -51.9870 S.3       11 UNK        -0.2369 
      8 C8         33.5391  -41.4835  -53.5187 C.3       11 UNK         0.0226 
      9 C9         32.7233  -41.9734  -54.7058 C.ar      11 UNK        -0.0699 
     10 C10        33.2195  -42.9905  -55.5273 C.ar      11 UNK        -0.0804 
     11 C11        32.4470  -43.4953  -56.5772 C.ar      11 UNK        -0.0871 
     12 C12        31.1921  -42.9385  -56.8341 C.ar      11 UNK        -0.1008 
     13 C13        30.6941  -41.9072  -56.0340 C.ar      11 UNK        -0.0735 
     14 C14        31.4615  -41.4293  -54.9676 C.ar      11 UNK        -0.0945 
     15 C15        29.3185  -41.3317  -56.3231 C.3       11 UNK         0.0169 
     16 S16        28.0143  -42.4078  -55.6489 S.3       11 UNK        -0.2669 
     17 C17        26.6916  -42.1937  -56.8935 C.3       11 UNK        -0.0850 
     18 CA         26.5546  -43.3855  -57.8852 C.3       10 UNK         0.0855 
     19 C          27.7530  -43.5311  -58.8605 C.2       10 UNK         0.5543 
     20 N          27.9737  -42.5470  -59.7213 N.am      10 UNK        -0.7343 
     21 O          28.4844  -44.5201  -58.8472 O.2       10 UNK        -0.5027 
     22 N          26.2755  -44.6539  -57.2073 N.am      10 UNK        -0.4495 
     23 C          25.0901  -45.0408  -56.7287 C.2       10 UNK         0.4903 
     24 O          24.0779  -44.3380  -56.7552 O.2       10 UNK        -0.4860 
     25 CA         25.0361  -46.4566  -56.1249 C.3       9 UNK         0.0227 
     26 CB         23.5989  -46.9797  -55.9190 C.3       9 UNK        -0.1964 
     27 N          25.8455  -47.4202  -56.8785 N.am      9 UNK        -0.4231 
     28 C          25.6860  -47.8182  -58.1501 C.2       9 UNK         0.5014 
     29 O          24.7885  -47.4233  -58.8958 O.2       9 UNK        -0.5270 
     30 CA         26.7074  -48.8396  -58.6841 C.3       8 UNK         0.0284 
     31 CB         27.9005  -48.1171  -59.3307 C.3       8 UNK        -0.1977 
     32 N          27.1916  -49.7609  -57.6507 N.am      8 UNK        -0.4342 
     33 C          26.4333  -50.6886  -57.0472 C.2       8 UNK         0.5039 
     34 O          25.2690  -50.9353  -57.3654 O.2       8 UNK        -0.5547 
     35 CA         27.0681  -51.4573  -55.8763 C.3       7 UNK         0.0281 
     36 CB         27.9320  -52.6192  -56.3919 C.3       7 UNK        -0.1963 
     37 N          27.8592  -50.5945  -54.9933 N.am      7 UNK        -0.4444 
     38 C          27.3477  -49.6210  -54.2241 C.2       7 UNK         0.5104 
     39 O          26.1434  -49.3867  -54.1256 O.2       7 UNK        -0.5100 
     40 CA         28.3444  -48.7336  -53.4582 C.3       6 UNK         0.0396 
     41 CB         28.7815  -49.4040  -52.1471 C.3       6 UNK        -0.1801 
     42 N          29.5261  -48.3907  -54.2494 N.am      6 UNK        -0.4747 
     43 C          29.5156  -47.6609  -55.3744 C.2       6 UNK         0.5012 
     44 O          28.4997  -47.1557  -55.8524 O.2       6 UNK        -0.5003 
     45 CA         30.8545  -47.5285  -56.1249 C.3       5 UNK         0.0782 
     46 C46        31.7305  -46.4204  -55.4991 C.3       11 UNK        -0.0868 
     47 S47        33.2970  -46.1491  -56.4004 S.3       11 UNK        -0.2515 
     48 C48        32.9401  -44.6712  -57.4101 C.3       11 UNK         0.0199 
     49 N          31.5504  -48.8163  -56.1894 N.am      5 UNK        -0.4607 
     50 C          31.1219  -49.8831  -56.8747 C.2       4 UNK         0.5031 
     51 O          30.0933  -49.8957  -57.5498 O.2       4 UNK        -0.5119 
     52 CA         31.9681  -51.1612  -56.7564 C.3       4 UNK         0.0263 
     53 CB         33.1622  -51.1102  -57.7227 C.3       4 UNK        -0.1967 
     54 N          32.4476  -51.3952  -55.3912 N.am      4 UNK        -0.4237 
     55 C          31.6509  -51.6857  -54.3525 C.2       3 UNK         0.4908 
     56 O          30.4318  -51.8240  -54.4422 O.2       3 UNK        -0.5102 
     57 CA         32.3199  -51.7977  -52.9716 C.3       3 UNK         0.0241 
     58 CB         32.9287  -53.1955  -52.7754 C.3       3 UNK        -0.1971 
     59 N          33.3404  -50.7718  -52.7230 N.am      3 UNK        -0.4139 
     60 C          33.1075  -49.4524  -52.7404 C.2       2 UNK         0.5016 
     61 O          32.0135  -48.9560  -53.0139 O.2       2 UNK        -0.5319 
     62 CA         34.2974  -48.5355  -52.4435 C.3       2 UNK         0.0286 
     63 CB         35.2235  -48.4273  -53.6698 C.3       2 UNK        -0.1963 
     64 N          33.7927  -47.2137  -52.0775 N.am      2 UNK        -0.4790 
     65 C          34.4619  -46.2796  -51.3957 C.2       1 UNK         0.5024 
     66 O          35.6167  -46.4334  -50.9946 O.2       1 UNK        -0.4888 
     67 H67        30.3137  -45.3285  -49.0169 H         1 UNK         0.0892 
     68 H68        29.2623  -45.1325  -50.4208 H         1 UNK         0.0892 
     69 H69        29.7712  -46.7466  -49.9182 H         1 UNK         0.0892 
     70 H70        32.4407  -44.8859  -49.4461 H         1 UNK         0.3107 
     71 H71        34.3535  -44.4395  -50.3577 H         1 UNK         0.0773 
     72 H72        33.0599  -44.4828  -53.1264 H         1 UNK         0.0680 
     73 H73        34.6876  -43.9537  -52.7839 H         1 UNK         0.0680 
     74 H74        34.6066  -41.6048  -53.7089 H         1 UNK         0.0650 
     75 H75        33.3746  -40.4147  -53.3742 H         1 UNK         0.0650 
     76 H76        34.1885  -43.4244  -55.3217 H         1 UNK         0.1397 
     77 H77        30.5860  -43.3242  -57.6425 H         1 UNK         0.1363 
     78 H78        31.0717  -40.6464  -54.3314 H         1 UNK         0.1355 
     79 H79        29.2031  -41.2203  -57.4019 H         1 UNK         0.0707 
     80 H80        29.2168  -40.3320  -55.8981 H         1 UNK         0.0707 
     81 H81        25.7520  -42.0684  -56.3535 H         1 UNK         0.1034 
     82 H82        26.8311  -41.2550  -57.4317 H         1 UNK         0.1034 
     83 H83        25.6954  -43.1818  -58.5275 H         1 UNK         0.0482 
     84 H84        28.7454  -42.6277  -60.3645 H         1 UNK         0.3460 
     85 H85        27.3737  -41.7383  -59.7613 H         1 UNK         0.3460 
     86 H86        27.0616  -45.2914  -57.1708 H         1 UNK         0.2989 
     87 H87        25.5019  -46.3836  -55.1410 H         1 UNK         0.0559 
     88 H88        23.0390  -46.3293  -55.2461 H         1 UNK         0.0848 
     89 H89        23.6022  -47.9765  -55.4774 H         1 UNK         0.0848 
     90 H90        23.0462  -47.0293  -56.8575 H         1 UNK         0.0848 
     91 H91        26.6838  -47.7356  -56.3992 H         1 UNK         0.3144 
     92 H92        26.2100  -49.4324  -59.4547 H         1 UNK         0.0727 
     93 H93        28.4525  -47.5184  -58.6055 H         1 UNK         0.0790 
     94 H94        27.5677  -47.4423  -60.1206 H         1 UNK         0.0790 
     95 H95        28.5976  -48.8248  -59.7798 H         1 UNK         0.0790 
     96 H96        28.1723  -49.6849  -57.3908 H         1 UNK         0.3215 
     97 H97        26.2550  -51.8803  -55.2823 H         1 UNK         0.0863 
     98 H98        28.3101  -53.2266  -55.5694 H         1 UNK         0.0808 
     99 H99        28.7878  -52.2641  -56.9662 H         1 UNK         0.0808 
    100 H100       27.3534  -53.2778  -57.0410 H         1 UNK         0.0808 
    101 H101       28.8585  -50.7760  -54.9504 H         1 UNK         0.3118 
    102 H102       27.8362  -47.8000  -53.2080 H         1 UNK         0.0546 
    103 H103       29.3089  -50.3406  -52.3295 H         1 UNK         0.0828 
    104 H104       27.9205  -49.6290  -51.5166 H         1 UNK         0.0828 
    105 H105       29.4452  -48.7552  -51.5752 H         1 UNK         0.0828 
    106 H106       30.4245  -48.7121  -53.8896 H         1 UNK         0.3005 
    107 H107       30.6156  -47.2300  -57.1484 H         1 UNK         0.1257 
    108 H108       31.1699  -45.4879  -55.4246 H         1 UNK         0.0775 
    109 H109       31.9943  -46.6839  -54.4749 H         1 UNK         0.0775 
    110 H110       33.8462  -44.3771  -57.9412 H         1 UNK         0.0840 
    111 H111       32.2091  -44.9408  -58.1742 H         1 UNK         0.0840 
    112 H112       32.3843  -48.8965  -55.6281 H         1 UNK         0.2987 
    113 H113       31.3353  -52.0048  -57.0405 H         1 UNK         0.0785 
    114 H114       32.8253  -50.9543  -58.7486 H         1 UNK         0.0798 
    115 H115       33.7255  -52.0434  -57.7071 H         1 UNK         0.0798 
    116 H116       33.8486  -50.2982  -57.4787 H         1 UNK         0.0798 
    117 H117       33.4392  -51.3018  -55.2274 H         1 UNK         0.3079 
    118 H118       31.5366  -51.6624  -52.2227 H         1 UNK         0.0794 
    119 H119       33.3072  -53.3248  -51.7612 H         1 UNK         0.0786 
    120 H120       33.7507  -53.3818  -53.4676 H         1 UNK         0.0786 
    121 H121       32.1809  -53.9727  -52.9406 H         1 UNK         0.0786 
    122 H122       34.2687  -51.1013  -52.4991 H         1 UNK         0.3032 
    123 H123       34.8492  -48.9517  -51.5976 H         1 UNK         0.1094 
    124 H124       34.6990  -48.0179  -54.5331 H         1 UNK         0.0794 
    125 H125       36.0811  -47.7855  -53.4677 H         1 UNK         0.0794 
    126 H126       35.6161  -49.4031  -53.9579 H         1 UNK         0.0794 
    127 H127       32.8174  -47.0383  -52.3212 H         1 UNK         0.3016 
@<TRIPOS>BOND
     1    1    2 1    
     2    1   67 1    
     3    1   68 1    
     4    1   69 1    
     5    2    3 2    
     6    2    4 am   BACKBONE|DICT|INTERRES
     7    4    5 1    
     8    4   70 1    
     9    5    6 1    
    10    5   65 1    
    11    5   71 1    
    12    6    7 1    
    13    6   72 1    
    14    6   73 1    
    15    7    8 1    
    16    8    9 1    
    17    8   74 1    
    18    8   75 1    
    19    9   10 ar   
    20    9   14 ar   
    21   10   11 ar   
    22   10   76 1    
    23   11   12 ar   
    24   11   48 1    
    25   12   13 ar   
    26   12   77 1    
    27   13   14 ar   
    28   13   15 1    
    29   14   78 1    
    30   15   16 1    
    31   15   79 1    
    32   15   80 1    
    33   16   17 1    
    34   17   18 1    
    35   17   81 1    
    36   17   82 1    
    37   18   19 1    
    38   18   22 1    
    39   18   83 1    
    40   19   20 am   BACKBONE|DICT|INTERRES
    41   19   21 2    
    42   20   84 1    
    43   20   85 1    
    44   22   23 am   BACKBONE|DICT|INTERRES
    45   22   86 1    
    46   23   24 2    
    47   23   25 1    
    48   25   26 1    
    49   25   27 1    
    50   25   87 1    
    51   26   88 1    
    52   26   89 1    
    53   26   90 1    
    54   27   28 am   BACKBONE|DICT|INTERRES
    55   27   91 1    
    56   28   29 2    
    57   28   30 1    
    58   30   31 1    
    59   30   32 1    
    60   30   92 1    
    61   31   93 1    
    62   31   94 1    
    63   31   95 1    
    64   32   33 am   BACKBONE|DICT|INTERRES
    65   32   96 1    
    66   33   34 2    
    67   33   35 1    
    68   35   36 1    
    69   35   37 1    
    70   35   97 1    
    71   36   98 1    
    72   36   99 1    
    73   36  100 1    
    74   37   38 am   BACKBONE|DICT|INTERRES
    75   37  101 1    
    76   38   39 2    
    77   38   40 1    
    78   40   41 1    
    79   40   42 1    
    80   40  102 1    
    81   41  103 1    
    82   41  104 1    
    83   41  105 1    
    84   42   43 am   BACKBONE|DICT|INTERRES
    85   42  106 1    
    86   43   44 2    
    87   43   45 1    
    88   45   46 1    
    89   45   49 1    
    90   45  107 1    
    91   46   47 1    
    92   46  108 1    
    93   46  109 1    
    94   47   48 1    
    95   48  110 1    
    96   48  111 1    
    97   49   50 am   BACKBONE|DICT|INTERRES
    98   49  112 1    
    99   50   51 2    
   100   50   52 1    
   101   52   53 1    
   102   52   54 1    
   103   52  113 1    
   104   53  114 1    
   105   53  115 1    
   106   53  116 1    
   107   54   55 am   BACKBONE|DICT|INTERRES
   108   54  117 1    
   109   55   56 2    
   110   55   57 1    
   111   57   58 1    
   112   57   59 1    
   113   57  118 1    
   114   58  119 1    
   115   58  120 1    
   116   58  121 1    
   117   59   60 am   BACKBONE|DICT|INTERRES
   118   59  122 1    
   119   60   61 2    
   120   60   62 1    
   121   62   63 1    
   122   62   64 1    
   123   62  123 1    
   124   63  124 1    
   125   63  125 1    
   126   63  126 1    
   127   64   65 am   BACKBONE|DICT|INTERRES
   128   64  127 1    
   129   65   66 2    
@<TRIPOS>SUBSTRUCTURE
     1 UNK         1 GROUP             0       ****    0 ROOT    
