@<TRIPOS>MOLECULE
3R134
127   129    1
SMALL
USER_CHARGES


@<TRIPOS>ATOM
      1 CA         37.8427  -45.0603  -52.1739 C.3       0 UNK        -0.1968 
      2 C          36.5920  -45.5969  -52.8559 C.2       0 UNK         0.4852 
      3 O          36.0353  -46.5943  -52.3945 O.2       0 UNK        -0.5359 
      4 N          36.1605  -44.9338  -53.9401 N.am      1 UNK        -0.4300 
      5 CA         35.0014  -45.2550  -54.7908 C.3       1 UNK         0.0863 
      6 C6         33.6448  -45.2986  -54.0255 C.3       11 UNK        -0.0953 
      7 S7         33.3296  -43.7569  -53.1013 S.3       11 UNK        -0.2369 
      8 C8         32.0553  -42.9438  -54.1203 C.3       11 UNK         0.0226 
      9 C9         30.6438  -43.4486  -53.8378 C.ar      11 UNK        -0.0699 
     10 C10        30.1576  -43.4991  -52.5264 C.ar      11 UNK        -0.0804 
     11 C11        28.8475  -43.9098  -52.2656 C.ar      11 UNK        -0.0871 
     12 C12        28.0071  -44.2395  -53.3317 C.ar      11 UNK        -0.1008 
     13 C13        28.4812  -44.2060  -54.6451 C.ar      11 UNK        -0.0735 
     14 C14        29.8026  -43.8179  -54.8928 C.ar      11 UNK        -0.0945 
     15 C15        27.5668  -44.6230  -55.7858 C.3       11 UNK         0.0169 
     16 S16        26.5004  -43.2613  -56.3551 S.3       11 UNK        -0.2669 
     17 C17        27.6323  -42.3114  -57.4300 C.3       11 UNK        -0.0850 
     18 CA         27.3077  -42.4607  -58.9474 C.3       10 UNK         0.0855 
     19 C          28.1357  -41.4778  -59.8324 C.2       10 UNK         0.5543 
     20 N          28.5057  -41.8408  -61.0546 N.am      10 UNK        -0.7343 
     21 O          28.4203  -40.3552  -59.4218 O.2       10 UNK        -0.5027 
     22 N          27.3084  -43.8621  -59.4153 N.am      10 UNK        -0.4495 
     23 C          28.3556  -44.6957  -59.4030 C.2       10 UNK         0.4903 
     24 O          29.4829  -44.3913  -59.0065 O.2       10 UNK        -0.4860 
     25 CA         28.1068  -46.1119  -59.9416 C.3       9 UNK         0.0227 
     26 CB         28.6173  -46.2359  -61.3865 C.3       9 UNK        -0.1964 
     27 N          28.8017  -47.0838  -59.0981 N.am      9 UNK        -0.4231 
     28 C          28.2933  -47.6127  -57.9786 C.2       9 UNK         0.5014 
     29 O          27.1337  -47.4366  -57.5971 O.2       9 UNK        -0.5270 
     30 CA         29.2743  -48.4234  -57.1141 C.3       8 UNK         0.0284 
     31 CB         30.0078  -47.4923  -56.1332 C.3       8 UNK        -0.1977 
     32 N          28.6171  -49.4850  -56.3505 N.am      8 UNK        -0.4342 
     33 C          28.0115  -50.5584  -56.8752 C.2       8 UNK         0.5039 
     34 O          27.9590  -50.7923  -58.0838 O.2       8 UNK        -0.5547 
     35 CA         27.3769  -51.5582  -55.8957 C.3       7 UNK         0.0281 
     36 CB         28.4145  -52.6050  -55.4558 C.3       7 UNK        -0.1963 
     37 N          26.8316  -50.9061  -54.7022 N.am      7 UNK        -0.4444 
     38 C          25.5273  -50.7551  -54.4369 C.2       7 UNK         0.5104 
     39 O          24.6288  -51.1089  -55.2016 O.2       7 UNK        -0.5100 
     40 CA         25.1402  -50.1427  -53.0755 C.3       6 UNK         0.0396 
     41 CB         24.6786  -51.2469  -52.1104 C.3       6 UNK        -0.1801 
     42 N          26.2203  -49.3833  -52.4405 N.am      6 UNK        -0.4747 
     43 C          26.5718  -48.1350  -52.7797 C.2       6 UNK         0.5012 
     44 O          25.9843  -47.4709  -53.6330 O.2       6 UNK        -0.5003 
     45 CA         27.7894  -47.5209  -52.0534 C.3       5 UNK         0.0782 
     46 C46        27.3062  -46.6334  -50.8789 C.3       11 UNK        -0.0868 
     47 S47        28.6468  -45.6521  -50.1233 S.3       11 UNK        -0.2515 
     48 C48        28.3473  -43.9989  -50.8317 C.3       11 UNK         0.0199 
     49 N          28.8120  -48.4912  -51.6276 N.am      5 UNK        -0.4607 
     50 C          29.4327  -49.3645  -52.4300 C.2       4 UNK         0.5031 
     51 O          29.0973  -49.5724  -53.5979 O.2       4 UNK        -0.5119 
     52 CA         30.5912  -50.1751  -51.8218 C.3       4 UNK         0.0263 
     53 CB         30.0441  -51.4063  -51.0815 C.3       4 UNK        -0.1967 
     54 N          31.5281  -50.6202  -52.8592 N.am      4 UNK        -0.4237 
     55 C          32.2663  -49.7930  -53.6120 C.2       3 UNK         0.4908 
     56 O          32.3802  -48.5847  -53.3841 O.2       3 UNK        -0.5102 
     57 CA         32.9564  -50.3983  -54.8467 C.3       3 UNK         0.0241 
     58 CB         32.0162  -51.3413  -55.6337 C.3       3 UNK        -0.1971 
     59 N          33.3807  -49.2783  -55.6810 N.am      3 UNK        -0.4139 
     60 C          34.1236  -49.3036  -56.7914 C.2       2 UNK         0.5016 
     61 O          34.6051  -50.3259  -57.2809 O.2       2 UNK        -0.5319 
     62 CA         34.3636  -47.9485  -57.4832 C.3       2 UNK         0.0286 
     63 CB         33.3433  -47.7407  -58.6153 C.3       2 UNK        -0.1963 
     64 N          34.3019  -46.8017  -56.5670 N.am      2 UNK        -0.4790 
     65 C          35.2398  -46.5194  -55.6508 C.2       1 UNK         0.5024 
     66 O          36.2650  -47.1930  -55.5184 O.2       1 UNK        -0.4888 
     67 H67        38.6254  -45.8184  -52.1766 H         1 UNK         0.0892 
     68 H68        38.2307  -44.1710  -52.6704 H         1 UNK         0.0892 
     69 H69        37.6227  -44.8006  -51.1387 H         1 UNK         0.0892 
     70 H70        36.6970  -44.1379  -54.2551 H         1 UNK         0.3107 
     71 H71        34.9410  -44.4318  -55.5046 H         1 UNK         0.0773 
     72 H72        32.8089  -45.4731  -54.7046 H         1 UNK         0.0680 
     73 H73        33.6252  -46.1277  -53.3169 H         1 UNK         0.0680 
     74 H74        32.3124  -43.0551  -55.1749 H         1 UNK         0.0650 
     75 H75        32.0811  -41.8737  -53.9113 H         1 UNK         0.0650 
     76 H76        30.8044  -43.2222  -51.7050 H         1 UNK         0.1397 
     77 H77        26.9874  -44.5462  -53.1420 H         1 UNK         0.1363 
     78 H78        30.1720  -43.7929  -55.9088 H         1 UNK         0.1355 
     79 H79        26.9347  -45.4519  -55.4627 H         1 UNK         0.0707 
     80 H80        28.1572  -45.0047  -56.6159 H         1 UNK         0.0707 
     81 H81        27.5466  -41.2664  -57.1269 H         1 UNK         0.1034 
     82 H82        28.6674  -42.5868  -57.2313 H         1 UNK         0.1034 
     83 H83        26.2781  -42.1262  -59.0792 H         1 UNK         0.0482 
     84 H84        29.0304  -41.1961  -61.6245 H         1 UNK         0.3460 
     85 H85        28.2696  -42.7533  -61.4087 H         1 UNK         0.3460 
     86 H86        26.4246  -44.1981  -59.7706 H         1 UNK         0.2989 
     87 H87        27.0349  -46.3219  -59.9349 H         1 UNK         0.0559 
     88 H88        28.0934  -45.5435  -62.0466 H         1 UNK         0.0848 
     89 H89        28.4554  -47.2399  -61.7794 H         1 UNK         0.0848 
     90 H90        29.6829  -46.0141  -61.4618 H         1 UNK         0.0848 
     91 H91        29.7789  -47.2300  -59.3053 H         1 UNK         0.3144 
     92 H92        30.0102  -48.8944  -57.7691 H         1 UNK         0.0727 
     93 H93        29.3216  -47.0566  -55.4059 H         1 UNK         0.0790 
     94 H94        30.4981  -46.6685  -56.6536 H         1 UNK         0.0790 
     95 H95        30.7746  -48.0291  -55.5780 H         1 UNK         0.0790 
     96 H96        28.6599  -49.4020  -55.3371 H         1 UNK         0.3215 
     97 H97        26.5851  -52.0805  -56.4371 H         1 UNK         0.0863 
     98 H98        27.9505  -53.3940  -54.8639 H         1 UNK         0.0808 
     99 H99        29.2060  -52.1593  -54.8531 H         1 UNK         0.0808 
    100 H100       28.8847  -53.0802  -56.3180 H         1 UNK         0.0808 
    101 H101       27.5091  -50.5215  -54.0507 H         1 UNK         0.3118 
    102 H102       24.2958  -49.4716  -53.2471 H         1 UNK         0.0546 
    103 H103       25.4789  -51.9556  -51.8935 H         1 UNK         0.0828 
    104 H104       23.8484  -51.8140  -52.5341 H         1 UNK         0.0828 
    105 H105       24.3324  -50.8295  -51.1647 H         1 UNK         0.0828 
    106 H106       26.7559  -49.8545  -51.7255 H         1 UNK         0.3005 
    107 H107       28.2792  -46.8816  -52.7897 H         1 UNK         0.1257 
    108 H108       26.8632  -47.2533  -50.0971 H         1 UNK         0.0775 
    109 H109       26.5130  -45.9560  -51.2010 H         1 UNK         0.0775 
    110 H110       27.2865  -43.7499  -50.7765 H         1 UNK         0.0840 
    111 H111       28.8600  -43.2581  -50.2162 H         1 UNK         0.0840 
    112 H112       29.1372  -48.3872  -50.6771 H         1 UNK         0.2987 
    113 H113       31.1330  -49.5408  -51.1171 H         1 UNK         0.0785 
    114 H114       29.3697  -51.1135  -50.2757 H         1 UNK         0.0798 
    115 H115       30.8485  -51.9880  -50.6306 H         1 UNK         0.0798 
    116 H116       29.4869  -52.0652  -51.7494 H         1 UNK         0.0798 
    117 H117       31.4743  -51.5919  -53.1245 H         1 UNK         0.3079 
    118 H118       33.8412  -50.9442  -54.5146 H         1 UNK         0.0794 
    119 H119       31.7361  -52.2143  -55.0443 H         1 UNK         0.0786 
    120 H120       32.4871  -51.7230  -56.5389 H         1 UNK         0.0786 
    121 H121       31.0992  -50.8319  -55.9302 H         1 UNK         0.0786 
    122 H122       33.0930  -48.3821  -55.3059 H         1 UNK         0.3032 
    123 H123       35.3625  -47.9832  -57.9248 H         1 UNK         0.1094 
    124 H124       33.5466  -46.8251  -59.1710 H         1 UNK         0.0794 
    125 H125       33.3804  -48.5650  -59.3291 H         1 UNK         0.0794 
    126 H126       32.3231  -47.6854  -58.2354 H         1 UNK         0.0794 
    127 H127       33.5040  -46.1897  -56.6589 H         1 UNK         0.3016 
@<TRIPOS>BOND
     1    1    2 1    
     2    1   67 1    
     3    1   68 1    
     4    1   69 1    
     5    2    3 2    
     6    2    4 am   BACKBONE|DICT|INTERRES
     7    4    5 1    
     8    4   70 1    
     9    5    6 1    
    10    5   65 1    
    11    5   71 1    
    12    6    7 1    
    13    6   72 1    
    14    6   73 1    
    15    7    8 1    
    16    8    9 1    
    17    8   74 1    
    18    8   75 1    
    19    9   10 ar   
    20    9   14 ar   
    21   10   11 ar   
    22   10   76 1    
    23   11   12 ar   
    24   11   48 1    
    25   12   13 ar   
    26   12   77 1    
    27   13   14 ar   
    28   13   15 1    
    29   14   78 1    
    30   15   16 1    
    31   15   79 1    
    32   15   80 1    
    33   16   17 1    
    34   17   18 1    
    35   17   81 1    
    36   17   82 1    
    37   18   19 1    
    38   18   22 1    
    39   18   83 1    
    40   19   20 am   BACKBONE|DICT|INTERRES
    41   19   21 2    
    42   20   84 1    
    43   20   85 1    
    44   22   23 am   BACKBONE|DICT|INTERRES
    45   22   86 1    
    46   23   24 2    
    47   23   25 1    
    48   25   26 1    
    49   25   27 1    
    50   25   87 1    
    51   26   88 1    
    52   26   89 1    
    53   26   90 1    
    54   27   28 am   BACKBONE|DICT|INTERRES
    55   27   91 1    
    56   28   29 2    
    57   28   30 1    
    58   30   31 1    
    59   30   32 1    
    60   30   92 1    
    61   31   93 1    
    62   31   94 1    
    63   31   95 1    
    64   32   33 am   BACKBONE|DICT|INTERRES
    65   32   96 1    
    66   33   34 2    
    67   33   35 1    
    68   35   36 1    
    69   35   37 1    
    70   35   97 1    
    71   36   98 1    
    72   36   99 1    
    73   36  100 1    
    74   37   38 am   BACKBONE|DICT|INTERRES
    75   37  101 1    
    76   38   39 2    
    77   38   40 1    
    78   40   41 1    
    79   40   42 1    
    80   40  102 1    
    81   41  103 1    
    82   41  104 1    
    83   41  105 1    
    84   42   43 am   BACKBONE|DICT|INTERRES
    85   42  106 1    
    86   43   44 2    
    87   43   45 1    
    88   45   46 1    
    89   45   49 1    
    90   45  107 1    
    91   46   47 1    
    92   46  108 1    
    93   46  109 1    
    94   47   48 1    
    95   48  110 1    
    96   48  111 1    
    97   49   50 am   BACKBONE|DICT|INTERRES
    98   49  112 1    
    99   50   51 2    
   100   50   52 1    
   101   52   53 1    
   102   52   54 1    
   103   52  113 1    
   104   53  114 1    
   105   53  115 1    
   106   53  116 1    
   107   54   55 am   BACKBONE|DICT|INTERRES
   108   54  117 1    
   109   55   56 2    
   110   55   57 1    
   111   57   58 1    
   112   57   59 1    
   113   57  118 1    
   114   58  119 1    
   115   58  120 1    
   116   58  121 1    
   117   59   60 am   BACKBONE|DICT|INTERRES
   118   59  122 1    
   119   60   61 2    
   120   60   62 1    
   121   62   63 1    
   122   62   64 1    
   123   62  123 1    
   124   63  124 1    
   125   63  125 1    
   126   63  126 1    
   127   64   65 am   BACKBONE|DICT|INTERRES
   128   64  127 1    
   129   65   66 2    
@<TRIPOS>SUBSTRUCTURE
     1 UNK         1 GROUP             0       ****    0 ROOT    
