@<TRIPOS>MOLECULE
3R134
127   129    1
SMALL
USER_CHARGES


@<TRIPOS>ATOM
      1 CA         38.3422  -44.4123  -54.4355 C.3       0 UNK        -0.1968 
      2 C          37.5425  -45.6859  -54.6680 C.2       0 UNK         0.4852 
      3 O          38.1309  -46.7581  -54.8156 O.2       0 UNK        -0.5359 
      4 N          36.2075  -45.5745  -54.7031 N.am      1 UNK        -0.4300 
      5 CA         35.2771  -46.6916  -54.9184 C.3       1 UNK         0.0863 
      6 C6         33.8577  -46.2040  -55.3001 C.3       11 UNK        -0.0953 
      7 S7         33.8374  -45.1621  -56.8008 S.3       11 UNK        -0.2369 
      8 C8         33.3607  -43.5283  -56.1449 C.3       11 UNK         0.0226 
      9 C9         31.9275  -43.5244  -55.6340 C.ar      11 UNK        -0.0699 
     10 C10        31.6677  -43.6263  -54.2654 C.ar      11 UNK        -0.0804 
     11 C11        30.3547  -43.7080  -53.7983 C.ar      11 UNK        -0.0871 
     12 C12        29.2939  -43.6347  -54.7045 C.ar      11 UNK        -0.1008 
     13 C13        29.5388  -43.5286  -56.0765 C.ar      11 UNK        -0.0735 
     14 C14        30.8595  -43.4638  -56.5335 C.ar      11 UNK        -0.0945 
     15 C15        28.3956  -43.5994  -57.0786 C.3       11 UNK         0.0169 
     16 S16        27.2427  -42.1903  -56.9946 S.3       11 UNK        -0.2669 
     17 C17        25.7497  -42.6881  -56.0429 C.3       11 UNK        -0.0850 
     18 CA         25.5286  -44.1719  -55.6067 C.3       10 UNK         0.0855 
     19 C          24.3145  -44.3280  -54.6391 C.2       10 UNK         0.5543 
     20 N          23.5548  -45.4156  -54.6947 N.am      10 UNK        -0.7343 
     21 O          24.0737  -43.4659  -53.7976 O.2       10 UNK        -0.5027 
     22 N          25.5420  -45.1563  -56.7018 N.am      10 UNK        -0.4495 
     23 C          24.7597  -45.1988  -57.7856 C.2       10 UNK         0.4903 
     24 O          23.9167  -44.3438  -58.0597 O.2       10 UNK        -0.4860 
     25 CA         24.9144  -46.4424  -58.6854 C.3       9 UNK         0.0227 
     26 CB         24.3970  -46.2188  -60.1229 C.3       9 UNK        -0.1964 
     27 N          26.2660  -47.0230  -58.6795 N.am      9 UNK        -0.4231 
     28 C          27.3890  -46.5046  -59.2050 C.2       9 UNK         0.5014 
     29 O          27.4311  -45.4160  -59.7789 O.2       9 UNK        -0.5270 
     30 CA         28.6946  -47.3256  -59.0900 C.3       8 UNK         0.0284 
     31 CB         29.8099  -46.5280  -58.3921 C.3       8 UNK        -0.1977 
     32 N          28.5401  -48.6037  -58.3942 N.am      8 UNK        -0.4342 
     33 C          27.9981  -49.7132  -58.9114 C.2       8 UNK         0.5039 
     34 O          27.6134  -49.8123  -60.0766 O.2       8 UNK        -0.5547 
     35 CA         27.8064  -50.8938  -57.9444 C.3       7 UNK         0.0281 
     36 CB         29.0698  -51.7679  -57.8908 C.3       7 UNK        -0.1963 
     37 N          27.4485  -50.4582  -56.5898 N.am      7 UNK        -0.4444 
     38 C          26.2963  -49.8547  -56.2633 C.2       7 UNK         0.5104 
     39 O          25.3968  -49.6124  -57.0677 O.2       7 UNK        -0.5100 
     40 CA         26.1431  -49.4016  -54.8017 C.3       6 UNK         0.0396 
     41 CB         25.7188  -50.5777  -53.9086 C.3       6 UNK        -0.1801 
     42 N          27.3606  -48.7880  -54.2648 N.am      6 UNK        -0.4747 
     43 C          27.8808  -47.6306  -54.7009 C.2       6 UNK         0.5012 
     44 O          27.3872  -46.9585  -55.6054 O.2       6 UNK        -0.5003 
     45 CA         29.1945  -47.1677  -54.0394 C.3       5 UNK         0.0782 
     46 C46        28.8735  -46.4760  -52.6894 C.3       11 UNK        -0.0868 
     47 S47        30.3256  -45.7050  -51.9016 S.3       11 UNK        -0.2515 
     48 C48        30.0934  -43.9456  -52.3207 C.3       11 UNK         0.0199 
     49 N          30.1733  -48.2573  -53.9039 N.am      5 UNK        -0.4607 
     50 C          30.6033  -49.0454  -54.9013 C.2       4 UNK         0.5031 
     51 O          30.2202  -48.9209  -56.0649 O.2       4 UNK        -0.5119 
     52 CA         31.5928  -50.1810  -54.5722 C.3       4 UNK         0.0263 
     53 CB         32.6567  -50.3384  -55.6743 C.3       4 UNK        -0.1967 
     54 N          32.2532  -50.0704  -53.2652 N.am      4 UNK        -0.4237 
     55 C          31.6936  -50.4199  -52.0961 C.2       3 UNK         0.4908 
     56 O          30.5159  -50.7654  -51.9943 O.2       3 UNK        -0.5102 
     57 CA         32.5692  -50.4071  -50.8279 C.3       3 UNK         0.0241 
     58 CB         32.8548  -51.8452  -50.3627 C.3       3 UNK        -0.1971 
     59 N          33.8436  -49.7052  -50.9933 N.am      3 UNK        -0.4139 
     60 C          33.9933  -48.3758  -50.9455 C.2       2 UNK         0.5016 
     61 O          33.0692  -47.5925  -50.7300 O.2       2 UNK        -0.5319 
     62 CA         35.4042  -47.8105  -51.2018 C.3       2 UNK         0.0286 
     63 CB         36.5399  -48.8536  -51.0823 C.3       2 UNK        -0.1963 
     64 N          35.4725  -47.1186  -52.4944 N.am      2 UNK        -0.4790 
     65 C          35.1962  -47.6391  -53.7019 C.2       1 UNK         0.5024 
     66 O          34.8739  -48.8149  -53.8772 O.2       1 UNK        -0.4888 
     67 H67        37.6989  -43.5390  -54.3288 H         1 UNK         0.0892 
     68 H68        39.0167  -44.2353  -55.2728 H         1 UNK         0.0892 
     69 H69        38.9406  -44.5053  -53.5295 H         1 UNK         0.0892 
     70 H70        35.7834  -44.6646  -54.5999 H         1 UNK         0.3107 
     71 H71        35.6605  -47.2846  -55.7518 H         1 UNK         0.0773 
     72 H72        33.4079  -45.6710  -54.4637 H         1 UNK         0.0680 
     73 H73        33.2005  -47.0533  -55.4941 H         1 UNK         0.0680 
     74 H74        34.0552  -43.2326  -55.3575 H         1 UNK         0.0650 
     75 H75        33.4645  -42.7868  -56.9383 H         1 UNK         0.0650 
     76 H76        32.4871  -43.6909  -53.5628 H         1 UNK         0.1397 
     77 H77        28.2811  -43.7021  -54.3408 H         1 UNK         0.1363 
     78 H78        31.0629  -43.4101  -57.5943 H         1 UNK         0.1355 
     79 H79        27.9017  -44.5555  -56.9606 H         1 UNK         0.0707 
     80 H80        28.7955  -43.6115  -58.0931 H         1 UNK         0.0707 
     81 H81        24.8829  -42.3489  -56.6119 H         1 UNK         0.1034 
     82 H82        25.7614  -42.0546  -55.1542 H         1 UNK         0.1034 
     83 H83        26.3757  -44.4536  -54.9868 H         1 UNK         0.0482 
     84 H84        23.7465  -46.1363  -55.3707 H         1 UNK         0.3460 
     85 H85        22.7800  -45.5104  -54.0573 H         1 UNK         0.3460 
     86 H86        26.1882  -45.9269  -56.5451 H         1 UNK         0.2989 
     87 H87        24.2766  -47.2042  -58.2352 H         1 UNK         0.0559 
     88 H88        24.5096  -47.1168  -60.7303 H         1 UNK         0.0848 
     89 H89        24.9238  -45.4055  -60.6227 H         1 UNK         0.0848 
     90 H90        23.3370  -45.9619  -60.1209 H         1 UNK         0.0848 
     91 H91        26.3405  -47.9199  -58.2150 H         1 UNK         0.3144 
     92 H92        29.0229  -47.5323  -60.1106 H         1 UNK         0.0727 
     93 H93        30.7501  -47.0801  -58.3912 H         1 UNK         0.0790 
     94 H94        29.5588  -46.3088  -57.3543 H         1 UNK         0.0790 
     95 H95        29.9965  -45.5805  -58.8981 H         1 UNK         0.0790 
     96 H96        28.9039  -48.6455  -57.4445 H         1 UNK         0.3215 
     97 H97        26.9852  -51.5038  -58.3275 H         1 UNK         0.0863 
     98 H98        28.9227  -52.6418  -57.2560 H         1 UNK         0.0808 
     99 H99        29.9295  -51.2160  -57.5103 H         1 UNK         0.0808 
    100 H100       29.3324  -52.1315  -58.8852 H         1 UNK         0.0808 
    101 H101       28.1502  -50.5696  -55.8731 H         1 UNK         0.3118 
    102 H102       25.3505  -48.6508  -54.7701 H         1 UNK         0.0546 
    103 H103       24.8048  -51.0410  -54.2829 H         1 UNK         0.0828 
    104 H104       25.5178  -50.2487  -52.8890 H         1 UNK         0.0828 
    105 H105       26.4836  -51.3542  -53.8662 H         1 UNK         0.0828 
    106 H106       27.8402  -49.2836  -53.5261 H         1 UNK         0.3005 
    107 H107       29.6407  -46.4318  -54.7113 H         1 UNK         0.1257 
    108 H108       28.4613  -47.1985  -51.9823 H         1 UNK         0.0775 
    109 H109       28.1011  -45.7151  -52.8174 H         1 UNK         0.0775 
    110 H110       29.0893  -43.6229  -52.0411 H         1 UNK         0.0840 
    111 H111       30.7830  -43.3453  -51.7254 H         1 UNK         0.0840 
    112 H112       30.5346  -48.4182  -52.9748 H         1 UNK         0.2987 
    113 H113       31.0030  -51.1001  -54.5685 H         1 UNK         0.0785 
    114 H114       33.2199  -49.4189  -55.8290 H         1 UNK         0.0798 
    115 H115       32.1986  -50.5966  -56.6296 H         1 UNK         0.0798 
    116 H116       33.3660  -51.1308  -55.4351 H         1 UNK         0.0798 
    117 H117       33.2165  -49.7478  -53.2787 H         1 UNK         0.3079 
    118 H118       31.9943  -49.9069  -50.0454 H         1 UNK         0.0794 
    119 H119       33.4277  -52.4039  -51.1039 H         1 UNK         0.0786 
    120 H120       31.9269  -52.3921  -50.1884 H         1 UNK         0.0786 
    121 H121       33.4140  -51.8561  -49.4268 H         1 UNK         0.0786 
    122 H122       34.6537  -50.2706  -51.2034 H         1 UNK         0.3032 
    123 H123       35.5696  -47.0561  -50.4305 H         1 UNK         0.1094 
    124 H124       36.4871  -49.6233  -51.8529 H         1 UNK         0.0794 
    125 H125       37.5152  -48.3745  -51.1706 H         1 UNK         0.0794 
    126 H126       36.5182  -49.3509  -50.1115 H         1 UNK         0.0794 
    127 H127       35.7013  -46.1356  -52.4521 H         1 UNK         0.3016 
@<TRIPOS>BOND
     1    1    2 1    
     2    1   67 1    
     3    1   68 1    
     4    1   69 1    
     5    2    3 2    
     6    2    4 am   BACKBONE|DICT|INTERRES
     7    4    5 1    
     8    4   70 1    
     9    5    6 1    
    10    5   65 1    
    11    5   71 1    
    12    6    7 1    
    13    6   72 1    
    14    6   73 1    
    15    7    8 1    
    16    8    9 1    
    17    8   74 1    
    18    8   75 1    
    19    9   10 ar   
    20    9   14 ar   
    21   10   11 ar   
    22   10   76 1    
    23   11   12 ar   
    24   11   48 1    
    25   12   13 ar   
    26   12   77 1    
    27   13   14 ar   
    28   13   15 1    
    29   14   78 1    
    30   15   16 1    
    31   15   79 1    
    32   15   80 1    
    33   16   17 1    
    34   17   18 1    
    35   17   81 1    
    36   17   82 1    
    37   18   19 1    
    38   18   22 1    
    39   18   83 1    
    40   19   20 am   BACKBONE|DICT|INTERRES
    41   19   21 2    
    42   20   84 1    
    43   20   85 1    
    44   22   23 am   BACKBONE|DICT|INTERRES
    45   22   86 1    
    46   23   24 2    
    47   23   25 1    
    48   25   26 1    
    49   25   27 1    
    50   25   87 1    
    51   26   88 1    
    52   26   89 1    
    53   26   90 1    
    54   27   28 am   BACKBONE|DICT|INTERRES
    55   27   91 1    
    56   28   29 2    
    57   28   30 1    
    58   30   31 1    
    59   30   32 1    
    60   30   92 1    
    61   31   93 1    
    62   31   94 1    
    63   31   95 1    
    64   32   33 am   BACKBONE|DICT|INTERRES
    65   32   96 1    
    66   33   34 2    
    67   33   35 1    
    68   35   36 1    
    69   35   37 1    
    70   35   97 1    
    71   36   98 1    
    72   36   99 1    
    73   36  100 1    
    74   37   38 am   BACKBONE|DICT|INTERRES
    75   37  101 1    
    76   38   39 2    
    77   38   40 1    
    78   40   41 1    
    79   40   42 1    
    80   40  102 1    
    81   41  103 1    
    82   41  104 1    
    83   41  105 1    
    84   42   43 am   BACKBONE|DICT|INTERRES
    85   42  106 1    
    86   43   44 2    
    87   43   45 1    
    88   45   46 1    
    89   45   49 1    
    90   45  107 1    
    91   46   47 1    
    92   46  108 1    
    93   46  109 1    
    94   47   48 1    
    95   48  110 1    
    96   48  111 1    
    97   49   50 am   BACKBONE|DICT|INTERRES
    98   49  112 1    
    99   50   51 2    
   100   50   52 1    
   101   52   53 1    
   102   52   54 1    
   103   52  113 1    
   104   53  114 1    
   105   53  115 1    
   106   53  116 1    
   107   54   55 am   BACKBONE|DICT|INTERRES
   108   54  117 1    
   109   55   56 2    
   110   55   57 1    
   111   57   58 1    
   112   57   59 1    
   113   57  118 1    
   114   58  119 1    
   115   58  120 1    
   116   58  121 1    
   117   59   60 am   BACKBONE|DICT|INTERRES
   118   59  122 1    
   119   60   61 2    
   120   60   62 1    
   121   62   63 1    
   122   62   64 1    
   123   62  123 1    
   124   63  124 1    
   125   63  125 1    
   126   63  126 1    
   127   64   65 am   BACKBONE|DICT|INTERRES
   128   64  127 1    
   129   65   66 2    
@<TRIPOS>SUBSTRUCTURE
     1 UNK         1 GROUP             0       ****    0 ROOT    
