@<TRIPOS>MOLECULE
3R134
127   129    1
SMALL
USER_CHARGES


@<TRIPOS>ATOM
      1 CA         32.5837  -47.3413  -57.0703 C.3       0 UNK        -0.1968 
      2 C          33.4652  -46.5794  -56.0923 C.2       0 UNK         0.4852 
      3 O          34.5326  -46.0966  -56.4726 O.2       0 UNK        -0.5359 
      4 N          33.0414  -46.4998  -54.8252 N.am      1 UNK        -0.4300 
      5 CA         33.7095  -45.8747  -53.6778 C.3       1 UNK         0.0863 
      6 C6         34.0993  -44.3844  -53.8842 C.3       11 UNK        -0.0953 
      7 S7         33.6676  -43.3740  -52.4290 S.3       11 UNK        -0.2369 
      8 C8         32.2780  -42.3798  -53.0608 C.3       11 UNK         0.0226 
      9 C9         31.0328  -43.2125  -53.3410 C.ar      11 UNK        -0.0699 
     10 C10        30.1326  -43.5072  -52.3122 C.ar      11 UNK        -0.0804 
     11 C11        28.9571  -44.2186  -52.5773 C.ar      11 UNK        -0.0871 
     12 C12        28.6850  -44.6357  -53.8838 C.ar      11 UNK        -0.1008 
     13 C13        29.5887  -44.3691  -54.9162 C.ar      11 UNK        -0.0735 
     14 C14        30.7580  -43.6555  -54.6382 C.ar      11 UNK        -0.0945 
     15 C15        29.3209  -44.8728  -56.3262 C.3       11 UNK         0.0169 
     16 S16        29.1175  -43.5115  -57.5176 S.3       11 UNK        -0.2669 
     17 C17        28.9675  -44.4518  -59.0759 C.3       11 UNK        -0.0850 
     18 CA         27.6463  -44.1949  -59.8456 C.3       10 UNK         0.0855 
     19 C          27.6284  -45.0111  -61.1657 C.2       10 UNK         0.5543 
     20 N          27.0143  -46.1877  -61.2084 N.am      10 UNK        -0.7343 
     21 O          28.1734  -44.5629  -62.1712 O.2       10 UNK        -0.5027 
     22 N          26.4489  -44.4407  -59.0242 N.am      10 UNK        -0.4495 
     23 C          25.5678  -43.4979  -58.6622 C.2       10 UNK         0.4903 
     24 O          25.6992  -42.3015  -58.9259 O.2       10 UNK        -0.4860 
     25 CA         24.3028  -43.9364  -57.8988 C.3       9 UNK         0.0227 
     26 CB         23.0448  -43.6760  -58.7457 C.3       9 UNK        -0.1964 
     27 N          24.3084  -45.3414  -57.4916 N.am      9 UNK        -0.4231 
     28 C          24.9900  -45.8447  -56.4558 C.2       9 UNK         0.5014 
     29 O          25.6918  -45.1725  -55.7007 O.2       9 UNK        -0.5270 
     30 CA         24.8702  -47.3594  -56.2172 C.3       8 UNK         0.0284 
     31 CB         23.6624  -48.0197  -56.9221 C.3       8 UNK        -0.1977 
     32 N          26.1049  -48.0716  -56.5543 N.am      8 UNK        -0.4342 
     33 C          26.7439  -48.0955  -57.7351 C.2       8 UNK         0.5039 
     34 O          26.4037  -47.4122  -58.7047 O.2       8 UNK        -0.5547 
     35 CA         27.9636  -49.0337  -57.8747 C.3       7 UNK         0.0281 
     36 CB         29.1877  -48.2993  -58.4426 C.3       7 UNK        -0.1963 
     37 N          28.3468  -49.6866  -56.6197 N.am      7 UNK        -0.4444 
     38 C          27.7980  -50.8072  -56.1317 C.2       7 UNK         0.5104 
     39 O          26.9492  -51.4711  -56.7265 O.2       7 UNK        -0.5100 
     40 CA         28.2460  -51.2398  -54.7221 C.3       6 UNK         0.0396 
     41 CB         29.3515  -52.3025  -54.8174 C.3       6 UNK        -0.1801 
     42 N          28.7121  -50.1371  -53.8701 N.am      6 UNK        -0.4747 
     43 C          27.9842  -49.0740  -53.4896 C.2       6 UNK         0.5012 
     44 O          26.8198  -48.9057  -53.8522 O.2       6 UNK        -0.5003 
     45 CA         28.6575  -48.0175  -52.5811 C.3       5 UNK         0.0782 
     46 C46        27.6417  -47.3362  -51.6274 C.3       11 UNK        -0.0868 
     47 S47        28.3943  -46.0503  -50.5690 S.3       11 UNK        -0.2515 
     48 C48        27.9737  -44.5137  -51.4535 C.3       11 UNK         0.0199 
     49 N          29.8229  -48.5513  -51.8663 N.am      5 UNK        -0.4607 
     50 C          31.0539  -48.6293  -52.3795 C.2       4 UNK         0.5031 
     51 O          31.3182  -48.2813  -53.5333 O.2       4 UNK        -0.5119 
     52 CA         32.1650  -49.1799  -51.4629 C.3       4 UNK         0.0263 
     53 CB         31.6580  -50.1910  -50.4088 C.3       4 UNK        -0.1967 
     54 N          33.2802  -49.7387  -52.2353 N.am      4 UNK        -0.4237 
     55 C          33.2432  -50.7850  -53.0772 C.2       3 UNK         0.4908 
     56 O          32.2534  -51.5026  -53.2295 O.2       3 UNK        -0.5102 
     57 CA         34.5118  -51.0566  -53.9112 C.3       3 UNK         0.0241 
     58 CB         34.1774  -51.6902  -55.2753 C.3       3 UNK        -0.1971 
     59 N          35.2599  -49.8186  -54.1397 N.am      3 UNK        -0.4139 
     60 C          36.4129  -49.4731  -53.5521 C.2       2 UNK         0.5016 
     61 O          37.0563  -50.2100  -52.8049 O.2       2 UNK        -0.5319 
     62 CA         36.9056  -48.0367  -53.8120 C.3       2 UNK         0.0286 
     63 CB         37.8810  -48.0061  -54.9991 C.3       2 UNK        -0.1963 
     64 N          35.8079  -47.0947  -54.0635 N.am      2 UNK        -0.4790 
     65 C          34.8828  -46.7306  -53.1640 C.2       1 UNK         0.5024 
     66 O          34.8962  -47.1058  -51.9914 O.2       1 UNK        -0.4888 
     67 H67        33.1633  -48.1123  -57.5774 H         1 UNK         0.0892 
     68 H68        31.7471  -47.8257  -56.5668 H         1 UNK         0.0892 
     69 H69        32.1859  -46.6626  -57.8242 H         1 UNK         0.0892 
     70 H70        32.2073  -47.0207  -54.5578 H         1 UNK         0.3107 
     71 H71        32.9450  -45.9217  -52.8998 H         1 UNK         0.0773 
     72 H72        35.1645  -44.2645  -54.0911 H         1 UNK         0.0680 
     73 H73        33.5992  -43.9690  -54.7583 H         1 UNK         0.0680 
     74 H74        32.5931  -41.8482  -53.9602 H         1 UNK         0.0650 
     75 H75        32.0404  -41.6097  -52.3256 H         1 UNK         0.0650 
     76 H76        30.3427  -43.1720  -51.3056 H         1 UNK         0.1397 
     77 H77        27.7733  -45.1783  -54.0942 H         1 UNK         0.1363 
     78 H78        31.4467  -43.4350  -55.4418 H         1 UNK         0.1355 
     79 H79        28.4308  -45.5041  -56.3521 H         1 UNK         0.0707 
     80 H80        30.1605  -45.4963  -56.6338 H         1 UNK         0.0707 
     81 H81        29.8225  -44.1874  -59.7013 H         1 UNK         0.1034 
     82 H82        29.0717  -45.5148  -58.8681 H         1 UNK         0.1034 
     83 H83        27.6632  -43.1480  -60.1542 H         1 UNK         0.0482 
     84 H84        26.6394  -46.6133  -60.3644 H         1 UNK         0.3460 
     85 H85        27.0001  -46.7019  -62.0743 H         1 UNK         0.3460 
     86 H86        26.2661  -45.4100  -58.7866 H         1 UNK         0.2989 
     87 H87        24.2397  -43.3191  -57.0002 H         1 UNK         0.0559 
     88 H88        22.9722  -42.6245  -59.0275 H         1 UNK         0.0848 
     89 H89        22.1363  -43.9227  -58.1959 H         1 UNK         0.0848 
     90 H90        23.0503  -44.2592  -59.6674 H         1 UNK         0.0848 
     91 H91        23.7886  -45.9849  -58.0709 H         1 UNK         0.3144 
     92 H92        24.7281  -47.4840  -55.1425 H         1 UNK         0.0727 
     93 H93        22.7290  -47.5189  -56.6610 H         1 UNK         0.0790 
     94 H94        23.5589  -49.0607  -56.6154 H         1 UNK         0.0790 
     95 H95        23.7564  -48.0103  -58.0086 H         1 UNK         0.0790 
     96 H96        26.4940  -48.6082  -55.7853 H         1 UNK         0.3215 
     97 H97        27.6772  -49.8017  -58.5965 H         1 UNK         0.0863 
     98 H98        29.5318  -47.5168  -57.7691 H         1 UNK         0.0808 
     99 H99        28.9596  -47.8401  -59.4053 H         1 UNK         0.0808 
    100 H100       30.0180  -48.9861  -58.6082 H         1 UNK         0.0808 
    101 H101       29.0404  -49.2202  -56.0534 H         1 UNK         0.3118 
    102 H102       27.3811  -51.6894  -54.2303 H         1 UNK         0.0546 
    103 H103       30.2573  -51.9035  -55.2762 H         1 UNK         0.0828 
    104 H104       29.0277  -53.1528  -55.4193 H         1 UNK         0.0828 
    105 H105       29.6195  -52.6876  -53.8333 H         1 UNK         0.0828 
    106 H106       29.6694  -50.1928  -53.5482 H         1 UNK         0.3005 
    107 H107       29.0140  -47.2463  -53.2652 H         1 UNK         0.1257 
    108 H108       27.1849  -48.0801  -50.9722 H         1 UNK         0.0775 
    109 H109       26.8198  -46.8905  -52.1908 H         1 UNK         0.0775 
    110 H110       26.9528  -44.5631  -51.8354 H         1 UNK         0.0840 
    111 H111       27.9828  -43.6896  -50.7385 H         1 UNK         0.0840 
    112 H112       29.6638  -48.8546  -50.9167 H         1 UNK         0.2987 
    113 H113       32.5704  -48.3188  -50.9299 H         1 UNK         0.0785 
    114 H114       30.9995  -49.7142  -49.6822 H         1 UNK         0.0798 
    115 H115       32.4872  -50.6196  -49.8458 H         1 UNK         0.0798 
    116 H116       31.1071  -51.0153  -50.8635 H         1 UNK         0.0798 
    117 H117       34.1326  -49.1945  -52.1956 H         1 UNK         0.3079 
    118 H118       35.1177  -51.7670  -53.3451 H         1 UNK         0.0794 
    119 H119       33.6817  -52.6539  -55.1508 H         1 UNK         0.0786 
    120 H120       35.0794  -51.8671  -55.8615 H         1 UNK         0.0786 
    121 H121       33.5137  -51.0547  -55.8632 H         1 UNK         0.0786 
    122 H122       34.8105  -49.1292  -54.7248 H         1 UNK         0.3032 
    123 H123       37.4378  -47.7064  -52.9169 H         1 UNK         0.1094 
    124 H124       38.7191  -48.6846  -54.8334 H         1 UNK         0.0794 
    125 H125       37.3964  -48.3062  -55.9291 H         1 UNK         0.0794 
    126 H126       38.2972  -47.0089  -55.1442 H         1 UNK         0.0794 
    127 H127       35.6931  -46.7463  -55.0124 H         1 UNK         0.3016 
@<TRIPOS>BOND
     1    1    2 1    
     2    1   67 1    
     3    1   68 1    
     4    1   69 1    
     5    2    3 2    
     6    2    4 am   BACKBONE|DICT|INTERRES
     7    4    5 1    
     8    4   70 1    
     9    5    6 1    
    10    5   65 1    
    11    5   71 1    
    12    6    7 1    
    13    6   72 1    
    14    6   73 1    
    15    7    8 1    
    16    8    9 1    
    17    8   74 1    
    18    8   75 1    
    19    9   10 ar   
    20    9   14 ar   
    21   10   11 ar   
    22   10   76 1    
    23   11   12 ar   
    24   11   48 1    
    25   12   13 ar   
    26   12   77 1    
    27   13   14 ar   
    28   13   15 1    
    29   14   78 1    
    30   15   16 1    
    31   15   79 1    
    32   15   80 1    
    33   16   17 1    
    34   17   18 1    
    35   17   81 1    
    36   17   82 1    
    37   18   19 1    
    38   18   22 1    
    39   18   83 1    
    40   19   20 am   BACKBONE|DICT|INTERRES
    41   19   21 2    
    42   20   84 1    
    43   20   85 1    
    44   22   23 am   BACKBONE|DICT|INTERRES
    45   22   86 1    
    46   23   24 2    
    47   23   25 1    
    48   25   26 1    
    49   25   27 1    
    50   25   87 1    
    51   26   88 1    
    52   26   89 1    
    53   26   90 1    
    54   27   28 am   BACKBONE|DICT|INTERRES
    55   27   91 1    
    56   28   29 2    
    57   28   30 1    
    58   30   31 1    
    59   30   32 1    
    60   30   92 1    
    61   31   93 1    
    62   31   94 1    
    63   31   95 1    
    64   32   33 am   BACKBONE|DICT|INTERRES
    65   32   96 1    
    66   33   34 2    
    67   33   35 1    
    68   35   36 1    
    69   35   37 1    
    70   35   97 1    
    71   36   98 1    
    72   36   99 1    
    73   36  100 1    
    74   37   38 am   BACKBONE|DICT|INTERRES
    75   37  101 1    
    76   38   39 2    
    77   38   40 1    
    78   40   41 1    
    79   40   42 1    
    80   40  102 1    
    81   41  103 1    
    82   41  104 1    
    83   41  105 1    
    84   42   43 am   BACKBONE|DICT|INTERRES
    85   42  106 1    
    86   43   44 2    
    87   43   45 1    
    88   45   46 1    
    89   45   49 1    
    90   45  107 1    
    91   46   47 1    
    92   46  108 1    
    93   46  109 1    
    94   47   48 1    
    95   48  110 1    
    96   48  111 1    
    97   49   50 am   BACKBONE|DICT|INTERRES
    98   49  112 1    
    99   50   51 2    
   100   50   52 1    
   101   52   53 1    
   102   52   54 1    
   103   52  113 1    
   104   53  114 1    
   105   53  115 1    
   106   53  116 1    
   107   54   55 am   BACKBONE|DICT|INTERRES
   108   54  117 1    
   109   55   56 2    
   110   55   57 1    
   111   57   58 1    
   112   57   59 1    
   113   57  118 1    
   114   58  119 1    
   115   58  120 1    
   116   58  121 1    
   117   59   60 am   BACKBONE|DICT|INTERRES
   118   59  122 1    
   119   60   61 2    
   120   60   62 1    
   121   62   63 1    
   122   62   64 1    
   123   62  123 1    
   124   63  124 1    
   125   63  125 1    
   126   63  126 1    
   127   64   65 am   BACKBONE|DICT|INTERRES
   128   64  127 1    
   129   65   66 2    
@<TRIPOS>SUBSTRUCTURE
     1 UNK         1 GROUP             0       ****    0 ROOT    
