@<TRIPOS>MOLECULE
3R134
127   129    1
SMALL
USER_CHARGES


@<TRIPOS>ATOM
      1 CA         38.0533  -43.4071  -48.3513 C.3       0 UNK        -0.1968 
      2 C          37.3050  -44.4276  -49.1957 C.2       0 UNK         0.4852 
      3 O          37.4542  -45.6317  -48.9777 O.2       0 UNK        -0.5359 
      4 N          36.4881  -43.9621  -50.1506 N.am      1 UNK        -0.4300 
      5 CA         35.6848  -44.7789  -51.0692 C.3       1 UNK         0.0863 
      6 C6         35.3921  -44.0028  -52.3803 C.3       11 UNK        -0.0953 
      7 S7         34.9582  -45.0871  -53.7852 S.3       11 UNK        -0.2369 
      8 C8         33.3228  -44.4077  -54.2318 C.3       11 UNK         0.0226 
      9 C9         32.7067  -44.9262  -55.5332 C.ar      11 UNK        -0.0699 
     10 C10        33.4226  -45.6685  -56.4835 C.ar      11 UNK        -0.0804 
     11 C11        32.8169  -46.0725  -57.6779 C.ar      11 UNK        -0.0871 
     12 C12        31.4832  -45.7314  -57.9253 C.ar      11 UNK        -0.1008 
     13 C13        30.7578  -44.9922  -56.9890 C.ar      11 UNK        -0.0735 
     14 C14        31.3737  -44.5981  -55.7988 C.ar      11 UNK        -0.0945 
     15 C15        29.3323  -44.5540  -57.2842 C.3       11 UNK         0.0169 
     16 S16        28.0974  -45.6125  -56.4692 S.3       11 UNK        -0.2669 
     17 C17        26.6492  -44.5144  -56.6433 C.3       11 UNK        -0.0850 
     18 CA         25.3475  -45.0639  -56.0043 C.3       10 UNK         0.0855 
     19 C          24.2380  -43.9682  -56.0067 C.2       10 UNK         0.5543 
     20 N          23.1292  -44.1293  -56.7216 N.am      10 UNK        -0.7343 
     21 O          24.3867  -42.9495  -55.3363 O.2       10 UNK        -0.5027 
     22 N          24.9210  -46.3393  -56.6027 N.am      10 UNK        -0.4495 
     23 C          24.0684  -47.1883  -56.0069 C.2       10 UNK         0.4903 
     24 O          23.6972  -47.0598  -54.8392 O.2       10 UNK        -0.4860 
     25 CA         23.5300  -48.3764  -56.8332 C.3       9 UNK         0.0227 
     26 CB         22.0936  -48.7716  -56.4289 C.3       9 UNK        -0.1964 
     27 N          23.6277  -48.1932  -58.2858 N.am      9 UNK        -0.4231 
     28 C          23.0509  -47.2388  -59.0351 C.2       9 UNK         0.5014 
     29 O          22.2924  -46.3787  -58.5824 O.2       9 UNK        -0.5270 
     30 CA         23.4438  -47.2183  -60.5305 C.3       8 UNK         0.0284 
     31 CB         23.1284  -45.8698  -61.2131 C.3       8 UNK        -0.1977 
     32 N          24.8488  -47.5994  -60.7499 N.am      8 UNK        -0.4342 
     33 C          25.9200  -47.0131  -60.1956 C.2       8 UNK         0.5039 
     34 O          25.8685  -45.9967  -59.5025 O.2       8 UNK        -0.5547 
     35 CA         27.2604  -47.7495  -60.3331 C.3       7 UNK         0.0281 
     36 CB         28.3497  -46.8297  -60.9095 C.3       7 UNK        -0.1963 
     37 N          27.6827  -48.2329  -59.0175 N.am      7 UNK        -0.4444 
     38 C          27.0404  -49.1610  -58.2937 C.2       7 UNK         0.5104 
     39 O          26.0599  -49.7862  -58.7043 O.2       7 UNK        -0.5100 
     40 CA         27.5665  -49.3974  -56.8647 C.3       6 UNK         0.0396 
     41 CB         27.0713  -50.7227  -56.2475 C.3       6 UNK        -0.1801 
     42 N          29.0266  -49.2808  -56.7715 N.am      6 UNK        -0.4747 
     43 C          29.9437  -50.0633  -57.3651 C.2       6 UNK         0.5012 
     44 O          29.6658  -51.0311  -58.0740 O.2       6 UNK        -0.5003 
     45 CA         31.4274  -49.6923  -57.1574 C.3       5 UNK         0.0782 
     46 C46        32.0281  -49.1629  -58.4847 C.3       11 UNK        -0.0868 
     47 S47        33.7604  -48.6115  -58.3222 S.3       11 UNK        -0.2515 
     48 C48        33.6205  -46.8395  -58.7198 C.3       11 UNK         0.0199 
     49 N          31.6383  -48.7728  -56.0294 N.am      5 UNK        -0.4607 
     50 C          31.5505  -49.1314  -54.7431 C.2       4 UNK         0.5031 
     51 O          31.2022  -50.2536  -54.3678 O.2       4 UNK        -0.5119 
     52 CA         31.8743  -48.0434  -53.7065 C.3       4 UNK         0.0263 
     53 CB         30.6206  -47.2125  -53.3880 C.3       4 UNK        -0.1967 
     54 N          32.3981  -48.6111  -52.4634 N.am      4 UNK        -0.4237 
     55 C          33.5751  -49.2380  -52.3421 C.2       3 UNK         0.4908 
     56 O          34.3970  -49.3395  -53.2551 O.2       3 UNK        -0.5102 
     57 CA         33.8959  -49.8057  -50.9482 C.3       3 UNK         0.0241 
     58 CB         35.1430  -50.7101  -50.9455 C.3       3 UNK        -0.1971 
     59 N          34.1036  -48.7089  -50.0056 N.am      3 UNK        -0.4139 
     60 C          33.1351  -48.0546  -49.3506 C.2       2 UNK         0.5016 
     61 O          31.9446  -48.3677  -49.3945 O.2       2 UNK        -0.5319 
     62 CA         33.5718  -46.8098  -48.5613 C.3       2 UNK         0.0286 
     63 CB         34.0708  -47.1951  -47.1597 C.3       2 UNK        -0.1963 
     64 N          34.6198  -46.0693  -49.2697 N.am      2 UNK        -0.4790 
     65 C          34.4191  -45.3365  -50.3736 C.2       1 UNK         0.5024 
     66 O          33.2977  -45.0977  -50.8238 O.2       1 UNK        -0.4888 
     67 H67        39.1280  -43.5630  -48.4407 H         1 UNK         0.0892 
     68 H68        37.8327  -42.3843  -48.6562 H         1 UNK         0.0892 
     69 H69        37.7790  -43.5153  -47.3023 H         1 UNK         0.0892 
     70 H70        36.3801  -42.9629  -50.2553 H         1 UNK         0.3107 
     71 H71        36.2900  -45.6470  -51.3407 H         1 UNK         0.0773 
     72 H72        34.6234  -43.2439  -52.2226 H         1 UNK         0.0680 
     73 H73        36.2836  -43.4545  -52.6890 H         1 UNK         0.0680 
     74 H74        32.6358  -44.6065  -53.4083 H         1 UNK         0.0650 
     75 H75        33.4090  -43.3233  -54.3128 H         1 UNK         0.0650 
     76 H76        34.4589  -45.9244  -56.3152 H         1 UNK         0.1397 
     77 H77        31.0159  -46.0169  -58.8578 H         1 UNK         0.1363 
     78 H78        30.8136  -44.0130  -55.0816 H         1 UNK         0.1355 
     79 H79        29.2064  -43.5223  -56.9518 H         1 UNK         0.0707 
     80 H80        29.1456  -44.5496  -58.3589 H         1 UNK         0.0707 
     81 H81        26.4929  -44.2965  -57.7007 H         1 UNK         0.1034 
     82 H82        26.9120  -43.5610  -56.1802 H         1 UNK         0.1034 
     83 H83        25.5705  -45.2561  -54.9529 H         1 UNK         0.0482 
     84 H84        22.9825  -44.9590  -57.2861 H         1 UNK         0.3460 
     85 H85        22.4256  -43.4087  -56.7036 H         1 UNK         0.3460 
     86 H86        25.1705  -46.4669  -57.5773 H         1 UNK         0.2989 
     87 H87        24.1775  -49.2202  -56.5958 H         1 UNK         0.0559 
     88 H88        21.7350  -49.6188  -57.0134 H         1 UNK         0.0848 
     89 H89        21.3928  -47.9476  -56.5671 H         1 UNK         0.0848 
     90 H90        22.0465  -49.0637  -55.3792 H         1 UNK         0.0848 
     91 H91        24.2843  -48.8203  -58.7424 H         1 UNK         0.3144 
     92 H92        22.8353  -47.9843  -61.0135 H         1 UNK         0.0727 
     93 H93        23.4040  -45.8844  -62.2674 H         1 UNK         0.0790 
     94 H94        23.6578  -45.0425  -60.7391 H         1 UNK         0.0790 
     95 H95        22.0624  -45.6448  -61.1606 H         1 UNK         0.0790 
     96 H96        24.9913  -48.4536  -61.2728 H         1 UNK         0.3215 
     97 H97        27.1429  -48.6084  -60.9972 H         1 UNK         0.0863 
     98 H98        29.2998  -47.3541  -61.0129 H         1 UNK         0.0808 
     99 H99        28.5152  -45.9541  -60.2809 H         1 UNK         0.0808 
    100 H100       28.0685  -46.4693  -61.8998 H         1 UNK         0.0808 
    101 H101       28.4356  -47.7306  -58.5716 H         1 UNK         0.3118 
    102 H102       27.1595  -48.5868  -56.2587 H         1 UNK         0.0546 
    103 H103       27.3703  -51.5858  -56.8426 H         1 UNK         0.0828 
    104 H104       25.9837  -50.7430  -56.1785 H         1 UNK         0.0828 
    105 H105       27.4606  -50.8596  -55.2387 H         1 UNK         0.0828 
    106 H106       29.3694  -48.5076  -56.2182 H         1 UNK         0.3005 
    107 H107       31.9430  -50.6246  -56.9142 H         1 UNK         0.1257 
    108 H108       32.0086  -49.9500  -59.2411 H         1 UNK         0.0775 
    109 H109       31.4200  -48.3550  -58.8923 H         1 UNK         0.0775 
    110 H110       34.6236  -46.4156  -58.7881 H         1 UNK         0.0840 
    111 H111       33.1790  -46.7241  -59.7111 H         1 UNK         0.0840 
    112 H112       31.9409  -47.8378  -56.2697 H         1 UNK         0.2987 
    113 H113       32.6417  -47.3870  -54.1200 H         1 UNK         0.0785 
    114 H114       30.8507  -46.3984  -52.7001 H         1 UNK         0.0798 
    115 H115       29.8360  -47.8223  -52.9380 H         1 UNK         0.0798 
    116 H116       30.2047  -46.7640  -54.2907 H         1 UNK         0.0798 
    117 H117       31.8007  -48.5617  -51.6475 H         1 UNK         0.3079 
    118 H118       33.0438  -50.4098  -50.6283 H         1 UNK         0.0794 
    119 H119       35.0206  -51.5437  -51.6385 H         1 UNK         0.0786 
    120 H120       35.3214  -51.1351  -49.9575 H         1 UNK         0.0786 
    121 H121       36.0409  -50.1669  -51.2434 H         1 UNK         0.0786 
    122 H122       35.0447  -48.3505  -49.9352 H         1 UNK         0.3032 
    123 H123       32.6987  -46.1622  -48.4511 H         1 UNK         0.1094 
    124 H124       33.3020  -47.7387  -46.6086 H         1 UNK         0.0794 
    125 H125       34.9544  -47.8332  -47.2034 H         1 UNK         0.0794 
    126 H126       34.3246  -46.3115  -46.5737 H         1 UNK         0.0794 
    127 H127       35.5780  -46.1708  -48.9444 H         1 UNK         0.3016 
@<TRIPOS>BOND
     1    1    2 1    
     2    1   67 1    
     3    1   68 1    
     4    1   69 1    
     5    2    3 2    
     6    2    4 am   BACKBONE|DICT|INTERRES
     7    4    5 1    
     8    4   70 1    
     9    5    6 1    
    10    5   65 1    
    11    5   71 1    
    12    6    7 1    
    13    6   72 1    
    14    6   73 1    
    15    7    8 1    
    16    8    9 1    
    17    8   74 1    
    18    8   75 1    
    19    9   10 ar   
    20    9   14 ar   
    21   10   11 ar   
    22   10   76 1    
    23   11   12 ar   
    24   11   48 1    
    25   12   13 ar   
    26   12   77 1    
    27   13   14 ar   
    28   13   15 1    
    29   14   78 1    
    30   15   16 1    
    31   15   79 1    
    32   15   80 1    
    33   16   17 1    
    34   17   18 1    
    35   17   81 1    
    36   17   82 1    
    37   18   19 1    
    38   18   22 1    
    39   18   83 1    
    40   19   20 am   BACKBONE|DICT|INTERRES
    41   19   21 2    
    42   20   84 1    
    43   20   85 1    
    44   22   23 am   BACKBONE|DICT|INTERRES
    45   22   86 1    
    46   23   24 2    
    47   23   25 1    
    48   25   26 1    
    49   25   27 1    
    50   25   87 1    
    51   26   88 1    
    52   26   89 1    
    53   26   90 1    
    54   27   28 am   BACKBONE|DICT|INTERRES
    55   27   91 1    
    56   28   29 2    
    57   28   30 1    
    58   30   31 1    
    59   30   32 1    
    60   30   92 1    
    61   31   93 1    
    62   31   94 1    
    63   31   95 1    
    64   32   33 am   BACKBONE|DICT|INTERRES
    65   32   96 1    
    66   33   34 2    
    67   33   35 1    
    68   35   36 1    
    69   35   37 1    
    70   35   97 1    
    71   36   98 1    
    72   36   99 1    
    73   36  100 1    
    74   37   38 am   BACKBONE|DICT|INTERRES
    75   37  101 1    
    76   38   39 2    
    77   38   40 1    
    78   40   41 1    
    79   40   42 1    
    80   40  102 1    
    81   41  103 1    
    82   41  104 1    
    83   41  105 1    
    84   42   43 am   BACKBONE|DICT|INTERRES
    85   42  106 1    
    86   43   44 2    
    87   43   45 1    
    88   45   46 1    
    89   45   49 1    
    90   45  107 1    
    91   46   47 1    
    92   46  108 1    
    93   46  109 1    
    94   47   48 1    
    95   48  110 1    
    96   48  111 1    
    97   49   50 am   BACKBONE|DICT|INTERRES
    98   49  112 1    
    99   50   51 2    
   100   50   52 1    
   101   52   53 1    
   102   52   54 1    
   103   52  113 1    
   104   53  114 1    
   105   53  115 1    
   106   53  116 1    
   107   54   55 am   BACKBONE|DICT|INTERRES
   108   54  117 1    
   109   55   56 2    
   110   55   57 1    
   111   57   58 1    
   112   57   59 1    
   113   57  118 1    
   114   58  119 1    
   115   58  120 1    
   116   58  121 1    
   117   59   60 am   BACKBONE|DICT|INTERRES
   118   59  122 1    
   119   60   61 2    
   120   60   62 1    
   121   62   63 1    
   122   62   64 1    
   123   62  123 1    
   124   63  124 1    
   125   63  125 1    
   126   63  126 1    
   127   64   65 am   BACKBONE|DICT|INTERRES
   128   64  127 1    
   129   65   66 2    
@<TRIPOS>SUBSTRUCTURE
     1 UNK         1 GROUP             0       ****    0 ROOT    
