@<TRIPOS>MOLECULE
3R134
127   129    1
SMALL
USER_CHARGES


@<TRIPOS>ATOM
      1 CA         37.6857  -49.8922  -55.5154 C.3       0 UNK        -0.1968 
      2 C          36.2853  -49.3547  -55.2647 C.2       0 UNK         0.4852 
      3 O          35.5506  -49.9263  -54.4593 O.2       0 UNK        -0.5359 
      4 N          35.9182  -48.2508  -55.9338 N.am      1 UNK        -0.4300 
      5 CA         34.6072  -47.5873  -55.8640 C.3       1 UNK         0.0863 
      6 C6         34.5612  -46.3628  -56.8124 C.3       11 UNK        -0.0953 
      7 S7         32.8745  -45.7276  -57.1064 S.3       11 UNK        -0.2369 
      8 C8         32.9225  -44.1158  -56.2585 C.3       11 UNK         0.0226 
      9 C9         31.7041  -43.9175  -55.3710 C.ar      11 UNK        -0.0699 
     10 C10        31.7604  -44.2634  -54.0185 C.ar      11 UNK        -0.0804 
     11 C11        30.6559  -44.0656  -53.1861 C.ar      11 UNK        -0.0871 
     12 C12        29.4855  -43.5172  -53.7188 C.ar      11 UNK        -0.1008 
     13 C13        29.4121  -43.1719  -55.0729 C.ar      11 UNK        -0.0735 
     14 C14        30.5288  -43.3680  -55.8920 C.ar      11 UNK        -0.0945 
     15 C15        28.1425  -42.5519  -55.6422 C.3       11 UNK         0.0169 
     16 S16        26.6840  -43.6130  -55.3958 S.3       11 UNK        -0.2669 
     17 C17        25.3759  -42.5608  -56.1155 C.3       11 UNK        -0.0850 
     18 CA         24.4620  -43.3253  -57.1166 C.3       10 UNK         0.0855 
     19 C          23.2572  -42.4629  -57.6040 C.2       10 UNK         0.5543 
     20 N          22.7742  -42.6358  -58.8285 N.am      10 UNK        -0.7343 
     21 O          22.7288  -41.6455  -56.8538 O.2       10 UNK        -0.5027 
     22 N          25.2091  -44.0044  -58.1908 N.am      10 UNK        -0.4495 
     23 C          25.9701  -43.4341  -59.1313 C.2       10 UNK         0.4903 
     24 O          26.1641  -42.2205  -59.2183 O.2       10 UNK        -0.4860 
     25 CA         26.6267  -44.3985  -60.1416 C.3       9 UNK         0.0227 
     26 CB         27.3417  -43.6559  -61.2863 C.3       9 UNK        -0.1964 
     27 N          27.5785  -45.3144  -59.5050 N.am      9 UNK        -0.4231 
     28 C          27.2637  -46.3649  -58.7352 C.2       9 UNK         0.5014 
     29 O          26.1029  -46.6964  -58.4739 O.2       9 UNK        -0.5270 
     30 CA         28.4532  -47.1490  -58.1548 C.3       8 UNK         0.0284 
     31 CB         29.2252  -46.3025  -57.1312 C.3       8 UNK        -0.1977 
     32 N          28.0250  -48.3857  -57.5050 N.am      8 UNK        -0.4342 
     33 C          27.7258  -49.5259  -58.1405 C.2       8 UNK         0.5039 
     34 O          27.7992  -49.6606  -59.3637 O.2       8 UNK        -0.5547 
     35 CA         27.2940  -50.7308  -57.2835 C.3       7 UNK         0.0281 
     36 CB         28.3000  -51.8864  -57.4299 C.3       7 UNK        -0.1963 
     37 N          27.1812  -50.3906  -55.8628 N.am      7 UNK        -0.4444 
     38 C          26.0299  -50.1703  -55.2134 C.2       7 UNK         0.5104 
     39 O          24.9199  -50.2672  -55.7376 O.2       7 UNK        -0.5100 
     40 CA         26.1167  -49.7812  -53.7234 C.3       6 UNK         0.0396 
     41 CB         25.8332  -51.0039  -52.8361 C.3       6 UNK        -0.1801 
     42 N          27.4010  -49.1934  -53.3297 N.am      6 UNK        -0.4747 
     43 C          27.8622  -48.0048  -53.7472 C.2       6 UNK         0.5012 
     44 O          27.2325  -47.2620  -54.4974 O.2       6 UNK        -0.5003 
     45 CA         29.2825  -47.6063  -53.2917 C.3       5 UNK         0.0782 
     46 C46        29.2064  -46.7838  -51.9820 C.3       11 UNK        -0.0868 
     47 S47        30.8446  -46.2097  -51.4197 S.3       11 UNK        -0.2515 
     48 C48        30.7412  -44.4147  -51.7067 C.3       11 UNK         0.0199 
     49 N          30.1981  -48.7520  -53.1684 N.am      5 UNK        -0.4607 
     50 C          30.4921  -49.6352  -54.1332 C.2       4 UNK         0.5031 
     51 O          29.9414  -49.6444  -55.2341 O.2       4 UNK        -0.5119 
     52 CA         31.5544  -50.6957  -53.8066 C.3       4 UNK         0.0263 
     53 CB         32.2210  -51.2751  -55.0694 C.3       4 UNK        -0.1967 
     54 N          32.5871  -50.1549  -52.9216 N.am      4 UNK        -0.4237 
     55 C          33.1432  -50.8143  -51.8946 C.2       3 UNK         0.4908 
     56 O          32.7669  -51.9279  -51.5253 O.2       3 UNK        -0.5102 
     57 CA         34.3190  -50.1494  -51.1521 C.3       3 UNK         0.0241 
     58 CB         35.5321  -51.0949  -51.0817 C.3       3 UNK        -0.1971 
     59 N          34.7393  -48.9048  -51.7967 N.am      3 UNK        -0.4139 
     60 C          34.5653  -47.6756  -51.2924 C.2       2 UNK         0.5016 
     61 O          34.1052  -47.4585  -50.1710 O.2       2 UNK        -0.5319 
     62 CA         34.9661  -46.4741  -52.1746 C.3       2 UNK         0.0286 
     63 CB         36.2521  -45.8207  -51.6428 C.3       2 UNK        -0.1963 
     64 N          35.1475  -46.7834  -53.5986 N.am      2 UNK        -0.4790 
     65 C          34.1856  -47.2258  -54.4222 C.2       1 UNK         0.5024 
     66 O          33.0281  -47.4264  -54.0594 O.2       1 UNK        -0.4888 
     67 H67        38.2523  -49.9087  -54.5848 H         1 UNK         0.0892 
     68 H68        37.6313  -50.9107  -55.8990 H         1 UNK         0.0892 
     69 H69        38.2339  -49.2865  -56.2367 H         1 UNK         0.0892 
     70 H70        36.5791  -47.8331  -56.5736 H         1 UNK         0.3107 
     71 H71        33.8806  -48.3176  -56.2266 H         1 UNK         0.0773 
     72 H72        34.9513  -46.6481  -57.7907 H         1 UNK         0.0680 
     73 H73        35.2208  -45.5691  -56.4584 H         1 UNK         0.0680 
     74 H74        32.9757  -43.3240  -57.0071 H         1 UNK         0.0650 
     75 H75        33.8253  -44.0210  -55.6543 H         1 UNK         0.0650 
     76 H76        32.6661  -44.6881  -53.6107 H         1 UNK         0.1397 
     77 H77        28.6269  -43.3546  -53.0815 H         1 UNK         0.1363 
     78 H78        30.4867  -43.0940  -56.9372 H         1 UNK         0.1355 
     79 H79        27.9736  -41.5885  -55.1591 H         1 UNK         0.0707 
     80 H80        28.2539  -42.3533  -56.7096 H         1 UNK         0.0707 
     81 H81        24.7856  -42.1690  -55.2853 H         1 UNK         0.1034 
     82 H82        25.8188  -41.6898  -56.6010 H         1 UNK         0.1034 
     83 H83        23.9958  -44.1353  -56.5547 H         1 UNK         0.0482 
     84 H84        23.1892  -43.3130  -59.4480 H         1 UNK         0.3460 
     85 H85        21.9886  -42.0832  -59.1341 H         1 UNK         0.3460 
     86 H86        25.1735  -45.0201  -58.1823 H         1 UNK         0.2989 
     87 H87        25.8253  -44.9923  -60.5863 H         1 UNK         0.0559 
     88 H88        28.1710  -43.0490  -60.9207 H         1 UNK         0.0848 
     89 H89        26.6545  -42.9875  -61.8071 H         1 UNK         0.0848 
     90 H90        27.7351  -44.3516  -62.0277 H         1 UNK         0.0848 
     91 H91        28.5559  -45.0995  -59.6397 H         1 UNK         0.3144 
     92 H92        29.1295  -47.4037  -58.9737 H         1 UNK         0.0727 
     93 H93        29.7084  -45.4537  -57.6139 H         1 UNK         0.0790 
     94 H94        30.0106  -46.8810  -56.6435 H         1 UNK         0.0790 
     95 H95        28.5710  -45.9049  -56.3547 H         1 UNK         0.0790 
     96 H96        27.8786  -48.3383  -56.5060 H         1 UNK         0.3215 
     97 H97        26.3303  -51.0699  -57.6691 H         1 UNK         0.0863 
     98 H98        29.2985  -51.5950  -57.1022 H         1 UNK         0.0808 
     99 H99        28.3794  -52.2073  -58.4694 H         1 UNK         0.0808 
    100 H100       27.9947  -52.7551  -56.8465 H         1 UNK         0.0808 
    101 H101       28.0613  -50.2446  -55.3762 H         1 UNK         0.3118 
    102 H102       25.3388  -49.0379  -53.5363 H         1 UNK         0.0546 
    103 H103       26.5886  -51.7802  -52.9640 H         1 UNK         0.0828 
    104 H104       24.8668  -51.4476  -53.0803 H         1 UNK         0.0828 
    105 H105       25.8037  -50.7320  -51.7809 H         1 UNK         0.0828 
    106 H106       27.9895  -49.7456  -52.7222 H         1 UNK         0.3005 
    107 H107       29.6940  -46.9604  -54.0714 H         1 UNK         0.1257 
    108 H108       28.7696  -47.3814  -51.1796 H         1 UNK         0.0775 
    109 H109       28.5477  -45.9223  -52.1086 H         1 UNK         0.0775 
    110 H110       29.8890  -44.0104  -51.1581 H         1 UNK         0.0840 
    111 H111       31.6270  -43.9416  -51.2807 H         1 UNK         0.0840 
    112 H112       30.7111  -48.8039  -52.3004 H         1 UNK         0.2987 
    113 H113       31.0197  -51.5037  -53.3035 H         1 UNK         0.0785 
    114 H114       31.4868  -51.7433  -55.7258 H         1 UNK         0.0798 
    115 H115       32.9582  -52.0365  -54.8143 H         1 UNK         0.0798 
    116 H116       32.7291  -50.4993  -55.6430 H         1 UNK         0.0798 
    117 H117       32.9119  -49.2207  -53.1545 H         1 UNK         0.3079 
    118 H118       33.9787  -49.9578  -50.1326 H         1 UNK         0.0794 
    119 H119       35.2821  -52.0198  -50.5602 H         1 UNK         0.0786 
    120 H120       36.3609  -50.6357  -50.5427 H         1 UNK         0.0786 
    121 H121       35.8884  -51.3663  -52.0764 H         1 UNK         0.0786 
    122 H122       35.1163  -49.0085  -52.7350 H         1 UNK         0.3032 
    123 H123       34.1542  -45.7486  -52.0924 H         1 UNK         0.1094 
    124 H124       36.1448  -45.5429  -50.5931 H         1 UNK         0.0794 
    125 H125       37.1065  -46.4949  -51.7152 H         1 UNK         0.0794 
    126 H126       36.4925  -44.9102  -52.1921 H         1 UNK         0.0794 
    127 H127       36.0812  -46.6790  -53.9694 H         1 UNK         0.3016 
@<TRIPOS>BOND
     1    1    2 1    
     2    1   67 1    
     3    1   68 1    
     4    1   69 1    
     5    2    3 2    
     6    2    4 am   BACKBONE|DICT|INTERRES
     7    4    5 1    
     8    4   70 1    
     9    5    6 1    
    10    5   65 1    
    11    5   71 1    
    12    6    7 1    
    13    6   72 1    
    14    6   73 1    
    15    7    8 1    
    16    8    9 1    
    17    8   74 1    
    18    8   75 1    
    19    9   10 ar   
    20    9   14 ar   
    21   10   11 ar   
    22   10   76 1    
    23   11   12 ar   
    24   11   48 1    
    25   12   13 ar   
    26   12   77 1    
    27   13   14 ar   
    28   13   15 1    
    29   14   78 1    
    30   15   16 1    
    31   15   79 1    
    32   15   80 1    
    33   16   17 1    
    34   17   18 1    
    35   17   81 1    
    36   17   82 1    
    37   18   19 1    
    38   18   22 1    
    39   18   83 1    
    40   19   20 am   BACKBONE|DICT|INTERRES
    41   19   21 2    
    42   20   84 1    
    43   20   85 1    
    44   22   23 am   BACKBONE|DICT|INTERRES
    45   22   86 1    
    46   23   24 2    
    47   23   25 1    
    48   25   26 1    
    49   25   27 1    
    50   25   87 1    
    51   26   88 1    
    52   26   89 1    
    53   26   90 1    
    54   27   28 am   BACKBONE|DICT|INTERRES
    55   27   91 1    
    56   28   29 2    
    57   28   30 1    
    58   30   31 1    
    59   30   32 1    
    60   30   92 1    
    61   31   93 1    
    62   31   94 1    
    63   31   95 1    
    64   32   33 am   BACKBONE|DICT|INTERRES
    65   32   96 1    
    66   33   34 2    
    67   33   35 1    
    68   35   36 1    
    69   35   37 1    
    70   35   97 1    
    71   36   98 1    
    72   36   99 1    
    73   36  100 1    
    74   37   38 am   BACKBONE|DICT|INTERRES
    75   37  101 1    
    76   38   39 2    
    77   38   40 1    
    78   40   41 1    
    79   40   42 1    
    80   40  102 1    
    81   41  103 1    
    82   41  104 1    
    83   41  105 1    
    84   42   43 am   BACKBONE|DICT|INTERRES
    85   42  106 1    
    86   43   44 2    
    87   43   45 1    
    88   45   46 1    
    89   45   49 1    
    90   45  107 1    
    91   46   47 1    
    92   46  108 1    
    93   46  109 1    
    94   47   48 1    
    95   48  110 1    
    96   48  111 1    
    97   49   50 am   BACKBONE|DICT|INTERRES
    98   49  112 1    
    99   50   51 2    
   100   50   52 1    
   101   52   53 1    
   102   52   54 1    
   103   52  113 1    
   104   53  114 1    
   105   53  115 1    
   106   53  116 1    
   107   54   55 am   BACKBONE|DICT|INTERRES
   108   54  117 1    
   109   55   56 2    
   110   55   57 1    
   111   57   58 1    
   112   57   59 1    
   113   57  118 1    
   114   58  119 1    
   115   58  120 1    
   116   58  121 1    
   117   59   60 am   BACKBONE|DICT|INTERRES
   118   59  122 1    
   119   60   61 2    
   120   60   62 1    
   121   62   63 1    
   122   62   64 1    
   123   62  123 1    
   124   63  124 1    
   125   63  125 1    
   126   63  126 1    
   127   64   65 am   BACKBONE|DICT|INTERRES
   128   64  127 1    
   129   65   66 2    
@<TRIPOS>SUBSTRUCTURE
     1 UNK         1 GROUP             0       ****    0 ROOT    
