@<TRIPOS>MOLECULE
3R134
127   129    1
SMALL
USER_CHARGES


@<TRIPOS>ATOM
      1 CA         27.9829  -45.1209  -52.2452 C.3       0 UNK        -0.1968 
      2 C          29.3163  -45.0900  -51.5137 C.2       0 UNK         0.4852 
      3 O          29.3388  -45.1310  -50.2823 O.2       0 UNK        -0.5359 
      4 N          30.4253  -45.0165  -52.2609 N.am      1 UNK        -0.4300 
      5 CA         31.7928  -45.0839  -51.7348 C.3       1 UNK         0.0863 
      6 C6         32.8264  -44.5494  -52.7566 C.3       11 UNK        -0.0953 
      7 S7         32.6070  -42.7668  -53.0626 S.3       11 UNK        -0.2369 
      8 C8         33.7153  -42.5061  -54.4842 C.3       11 UNK         0.0226 
      9 C9         33.1697  -43.1386  -55.7565 C.ar      11 UNK        -0.0699 
     10 C10        33.8506  -44.1897  -56.3773 C.ar      11 UNK        -0.0804 
     11 C11        33.3480  -44.7664  -57.5480 C.ar      11 UNK        -0.0871 
     12 C12        32.1427  -44.2996  -58.0842 C.ar      11 UNK        -0.1008 
     13 C13        31.4507  -43.2513  -57.4688 C.ar      11 UNK        -0.0735 
     14 C14        31.9830  -42.6617  -56.3188 C.ar      11 UNK        -0.0945 
     15 C15        30.1345  -42.7508  -58.0496 C.3       11 UNK         0.0169 
     16 S16        28.7110  -43.6910  -57.4083 S.3       11 UNK        -0.2669 
     17 C17        28.6188  -43.0985  -55.6805 C.3       11 UNK        -0.0850 
     18 CA         27.1917  -42.7215  -55.2059 C.3       10 UNK         0.0855 
     19 C          26.6620  -41.4156  -55.8686 C.2       10 UNK         0.5543 
     20 N          25.5015  -41.4198  -56.5134 N.am      10 UNK        -0.7343 
     21 O          27.3093  -40.3753  -55.7793 O.2       10 UNK        -0.5027 
     22 N          26.2758  -43.8705  -55.2843 N.am      10 UNK        -0.4495 
     23 C          25.2622  -44.1035  -54.4405 C.2       10 UNK         0.4903 
     24 O          25.0062  -43.3834  -53.4750 O.2       10 UNK        -0.4860 
     25 CA         24.3687  -45.3330  -54.7030 C.3       9 UNK         0.0227 
     26 CB         22.9048  -44.9046  -54.9078 C.3       9 UNK        -0.1964 
     27 N          24.7818  -46.1537  -55.8466 N.am      9 UNK        -0.4231 
     28 C          25.8040  -47.0188  -55.8533 C.2       9 UNK         0.5014 
     29 O          26.5629  -47.1994  -54.8980 O.2       9 UNK        -0.5270 
     30 CA         26.0304  -47.7620  -57.1803 C.3       8 UNK         0.0284 
     31 CB         26.8427  -46.8887  -58.1504 C.3       8 UNK        -0.1977 
     32 N          26.7163  -49.0425  -56.9986 N.am      8 UNK        -0.4342 
     33 C          26.1682  -50.1296  -56.4331 C.2       8 UNK         0.5039 
     34 O          25.0102  -50.1592  -56.0099 O.2       8 UNK        -0.5547 
     35 CA         27.0465  -51.3990  -56.3348 C.3       7 UNK         0.0281 
     36 CB         26.2172  -52.6966  -56.2297 C.3       7 UNK        -0.1963 
     37 N          28.0449  -51.5068  -57.4057 N.am      7 UNK        -0.4444 
     38 C          27.8240  -51.5228  -58.7307 C.2       7 UNK         0.5104 
     39 O          26.7030  -51.5995  -59.2363 O.2       7 UNK        -0.5100 
     40 CA         29.0624  -51.3996  -59.6492 C.3       6 UNK         0.0396 
     41 CB         28.7395  -50.6428  -60.9550 C.3       6 UNK        -0.1801 
     42 N          30.2435  -50.8072  -59.0003 N.am      6 UNK        -0.4747 
     43 C          30.3228  -49.6093  -58.3978 C.2       6 UNK         0.5012 
     44 O          29.3822  -48.8189  -58.3109 O.2       6 UNK        -0.5003 
     45 CA         31.6569  -49.2716  -57.7055 C.3       5 UNK         0.0782 
     46 C46        32.1524  -47.8709  -58.1378 C.3       11 UNK        -0.0868 
     47 S47        33.8125  -47.5008  -57.4855 S.3       11 UNK        -0.2515 
     48 C48        34.1248  -45.8766  -58.2411 C.3       11 UNK         0.0199 
     49 N          31.5567  -49.3717  -56.2439 N.am      5 UNK        -0.4607 
     50 C          31.0924  -50.4038  -55.5252 C.2       4 UNK         0.5031 
     51 O          30.6144  -51.4284  -56.0164 O.2       4 UNK        -0.5119 
     52 CA         31.1947  -50.2603  -53.9940 C.3       4 UNK         0.0263 
     53 CB         30.9298  -51.5853  -53.2485 C.3       4 UNK        -0.1967 
     54 N          32.4615  -49.6630  -53.5486 N.am      4 UNK        -0.4237 
     55 C          33.7073  -50.1127  -53.7864 C.2       3 UNK         0.4908 
     56 O          33.9618  -51.1166  -54.4527 O.2       3 UNK        -0.5102 
     57 CA         34.8821  -49.3132  -53.1850 C.3       3 UNK         0.0241 
     58 CB         35.5169  -48.4070  -54.2528 C.3       3 UNK        -0.1971 
     59 N          34.5108  -48.4930  -52.0303 N.am      3 UNK        -0.4139 
     60 C          34.1154  -48.9648  -50.8398 C.2       2 UNK         0.5016 
     61 O          34.1397  -50.1574  -50.5339 O.2       2 UNK        -0.5319 
     62 CA         33.5727  -47.9385  -49.8250 C.3       2 UNK         0.0286 
     63 CB         34.6284  -47.6428  -48.7470 C.3       2 UNK        -0.1963 
     64 N          33.1093  -46.6663  -50.4024 N.am      2 UNK        -0.4790 
     65 C          32.1396  -46.5272  -51.3194 C.2       1 UNK         0.5024 
     66 O          31.5729  -47.4797  -51.8617 O.2       1 UNK        -0.4888 
     67 H67        28.1051  -45.3355  -53.3065 H         1 UNK         0.0892 
     68 H68        27.3396  -45.8939  -51.8256 H         1 UNK         0.0892 
     69 H69        27.4755  -44.1624  -52.1417 H         1 UNK         0.0892 
     70 H70        30.3507  -45.0069  -53.2667 H         1 UNK         0.3107 
     71 H71        31.8415  -44.4631  -50.8371 H         1 UNK         0.0773 
     72 H72        32.7509  -45.0927  -53.7006 H         1 UNK         0.0680 
     73 H73        33.8469  -44.6936  -52.3963 H         1 UNK         0.0680 
     74 H74        33.8347  -41.4338  -54.6445 H         1 UNK         0.0650 
     75 H75        34.7064  -42.8941  -54.2440 H         1 UNK         0.0650 
     76 H76        34.7759  -44.5574  -55.9549 H         1 UNK         0.1397 
     77 H77        31.7417  -44.7507  -58.9817 H         1 UNK         0.1363 
     78 H78        31.4697  -41.8374  -55.8445 H         1 UNK         0.1355 
     79 H79        30.1540  -42.8440  -59.1365 H         1 UNK         0.0707 
     80 H80        29.9990  -41.6885  -57.8396 H         1 UNK         0.0707 
     81 H81        29.2796  -42.2433  -55.5414 H         1 UNK         0.1034 
     82 H82        29.0258  -43.8820  -55.0416 H         1 UNK         0.1034 
     83 H83        27.2941  -42.4641  -54.1499 H         1 UNK         0.0482 
     84 H84        24.9632  -42.2672  -56.5875 H         1 UNK         0.3460 
     85 H85        25.1653  -40.5673  -56.9329 H         1 UNK         0.3460 
     86 H86        26.4240  -44.4990  -56.0596 H         1 UNK         0.2989 
     87 H87        24.4150  -45.9538  -53.8057 H         1 UNK         0.0559 
     88 H88        22.2499  -45.7685  -55.0236 H         1 UNK         0.0848 
     89 H89        22.7868  -44.2719  -55.7884 H         1 UNK         0.0848 
     90 H90        22.5364  -44.3391  -54.0506 H         1 UNK         0.0848 
     91 H91        24.2276  -46.0593  -56.6863 H         1 UNK         0.3144 
     92 H92        25.0577  -47.9680  -57.6324 H         1 UNK         0.0727 
     93 H93        26.9944  -47.3922  -59.1055 H         1 UNK         0.0790 
     94 H94        27.8254  -46.6462  -57.7433 H         1 UNK         0.0790 
     95 H95        26.3352  -45.9463  -58.3596 H         1 UNK         0.0790 
     96 H96        27.6756  -49.0858  -57.3309 H         1 UNK         0.3215 
     97 H97        27.6129  -51.2958  -55.4079 H         1 UNK         0.0863 
     98 H98        26.8601  -53.5725  -56.1438 H         1 UNK         0.0808 
     99 H99        25.5726  -52.8361  -57.0980 H         1 UNK         0.0808 
    100 H100       25.5751  -52.6809  -55.3482 H         1 UNK         0.0808 
    101 H101       29.0131  -51.4699  -57.0928 H         1 UNK         0.3118 
    102 H102       29.3410  -52.4198  -59.9165 H         1 UNK         0.0546 
    103 H103       28.3869  -49.6299  -60.7574 H         1 UNK         0.0828 
    104 H104       27.9605  -51.1523  -61.5234 H         1 UNK         0.0828 
    105 H105       29.6142  -50.5737  -61.6013 H         1 UNK         0.0828 
    106 H106       31.0535  -51.4115  -58.9597 H         1 UNK         0.3005 
    107 H107       32.4011  -50.0046  -58.0238 H         1 UNK         0.1257 
    108 H108       32.1909  -47.7962  -59.2265 H         1 UNK         0.0775 
    109 H109       31.4604  -47.0979  -57.7971 H         1 UNK         0.0775 
    110 H110       35.1932  -45.6635  -58.1815 H         1 UNK         0.0840 
    111 H111       33.8849  -45.9114  -59.3050 H         1 UNK         0.0840 
    112 H112       31.9335  -48.5828  -55.7402 H         1 UNK         0.2987 
    113 H113       30.4104  -49.5591  -53.7042 H         1 UNK         0.0785 
    114 H114       30.9806  -51.4483  -52.1683 H         1 UNK         0.0798 
    115 H115       31.6523  -52.3545  -53.5233 H         1 UNK         0.0798 
    116 H116       29.9370  -51.9737  -53.4791 H         1 UNK         0.0798 
    117 H117       32.3525  -48.8333  -52.9708 H         1 UNK         0.3079 
    118 H118       35.6320  -50.0363  -52.8571 H         1 UNK         0.0794 
    119 H119       35.8012  -48.9808  -55.1363 H         1 UNK         0.0786 
    120 H120       36.4197  -47.9241  -53.8785 H         1 UNK         0.0786 
    121 H121       34.8293  -47.6262  -54.5802 H         1 UNK         0.0786 
    122 H122       34.4763  -47.4949  -52.1731 H         1 UNK         0.3032 
    123 H123       32.7119  -48.4061  -49.3415 H         1 UNK         0.1094 
    124 H124       35.5032  -47.1430  -49.1649 H         1 UNK         0.0794 
    125 H125       34.2241  -47.0105  -47.9562 H         1 UNK         0.0794 
    126 H126       34.9745  -48.5636  -48.2747 H         1 UNK         0.0794 
    127 H127       33.5333  -45.8302  -50.0245 H         1 UNK         0.3016 
@<TRIPOS>BOND
     1    1    2 1    
     2    1   67 1    
     3    1   68 1    
     4    1   69 1    
     5    2    3 2    
     6    2    4 am   BACKBONE|DICT|INTERRES
     7    4    5 1    
     8    4   70 1    
     9    5    6 1    
    10    5   65 1    
    11    5   71 1    
    12    6    7 1    
    13    6   72 1    
    14    6   73 1    
    15    7    8 1    
    16    8    9 1    
    17    8   74 1    
    18    8   75 1    
    19    9   10 ar   
    20    9   14 ar   
    21   10   11 ar   
    22   10   76 1    
    23   11   12 ar   
    24   11   48 1    
    25   12   13 ar   
    26   12   77 1    
    27   13   14 ar   
    28   13   15 1    
    29   14   78 1    
    30   15   16 1    
    31   15   79 1    
    32   15   80 1    
    33   16   17 1    
    34   17   18 1    
    35   17   81 1    
    36   17   82 1    
    37   18   19 1    
    38   18   22 1    
    39   18   83 1    
    40   19   20 am   BACKBONE|DICT|INTERRES
    41   19   21 2    
    42   20   84 1    
    43   20   85 1    
    44   22   23 am   BACKBONE|DICT|INTERRES
    45   22   86 1    
    46   23   24 2    
    47   23   25 1    
    48   25   26 1    
    49   25   27 1    
    50   25   87 1    
    51   26   88 1    
    52   26   89 1    
    53   26   90 1    
    54   27   28 am   BACKBONE|DICT|INTERRES
    55   27   91 1    
    56   28   29 2    
    57   28   30 1    
    58   30   31 1    
    59   30   32 1    
    60   30   92 1    
    61   31   93 1    
    62   31   94 1    
    63   31   95 1    
    64   32   33 am   BACKBONE|DICT|INTERRES
    65   32   96 1    
    66   33   34 2    
    67   33   35 1    
    68   35   36 1    
    69   35   37 1    
    70   35   97 1    
    71   36   98 1    
    72   36   99 1    
    73   36  100 1    
    74   37   38 am   BACKBONE|DICT|INTERRES
    75   37  101 1    
    76   38   39 2    
    77   38   40 1    
    78   40   41 1    
    79   40   42 1    
    80   40  102 1    
    81   41  103 1    
    82   41  104 1    
    83   41  105 1    
    84   42   43 am   BACKBONE|DICT|INTERRES
    85   42  106 1    
    86   43   44 2    
    87   43   45 1    
    88   45   46 1    
    89   45   49 1    
    90   45  107 1    
    91   46   47 1    
    92   46  108 1    
    93   46  109 1    
    94   47   48 1    
    95   48  110 1    
    96   48  111 1    
    97   49   50 am   BACKBONE|DICT|INTERRES
    98   49  112 1    
    99   50   51 2    
   100   50   52 1    
   101   52   53 1    
   102   52   54 1    
   103   52  113 1    
   104   53  114 1    
   105   53  115 1    
   106   53  116 1    
   107   54   55 am   BACKBONE|DICT|INTERRES
   108   54  117 1    
   109   55   56 2    
   110   55   57 1    
   111   57   58 1    
   112   57   59 1    
   113   57  118 1    
   114   58  119 1    
   115   58  120 1    
   116   58  121 1    
   117   59   60 am   BACKBONE|DICT|INTERRES
   118   59  122 1    
   119   60   61 2    
   120   60   62 1    
   121   62   63 1    
   122   62   64 1    
   123   62  123 1    
   124   63  124 1    
   125   63  125 1    
   126   63  126 1    
   127   64   65 am   BACKBONE|DICT|INTERRES
   128   64  127 1    
   129   65   66 2    
@<TRIPOS>SUBSTRUCTURE
     1 UNK         1 GROUP             0       ****    0 ROOT    
