@<TRIPOS>MOLECULE
3R134
127   129    1
SMALL
USER_CHARGES


@<TRIPOS>ATOM
      1 CA         37.1177  -46.3067  -54.0019 C.3       0 UNK        -0.1968 
      2 C          35.6541  -46.3163  -53.5893 C.2       0 UNK         0.4852 
      3 O          35.0238  -47.3730  -53.6074 O.2       0 UNK        -0.5359 
      4 N          35.1159  -45.1522  -53.1980 N.am      1 UNK        -0.4300 
      5 CA         33.7078  -44.9206  -52.8375 C.3       1 UNK         0.0863 
      6 C6         33.4524  -43.4444  -52.4400 C.3       11 UNK        -0.0953 
      7 S7         33.9431  -42.2749  -53.7535 S.3       11 UNK        -0.2369 
      8 C8         32.3361  -41.8362  -54.4912 C.3       11 UNK         0.0226 
      9 C9         31.5774  -43.0586  -54.9880 C.ar      11 UNK        -0.0699 
     10 C10        32.0725  -43.8101  -56.0575 C.ar      11 UNK        -0.0804 
     11 C11        31.3994  -44.9569  -56.4867 C.ar      11 UNK        -0.0871 
     12 C12        30.2020  -45.3250  -55.8684 C.ar      11 UNK        -0.1008 
     13 C13        29.6831  -44.5721  -54.8113 C.ar      11 UNK        -0.0735 
     14 C14        30.3892  -43.4494  -54.3635 C.ar      11 UNK        -0.0945 
     15 C15        28.3751  -45.0163  -54.1616 C.3       11 UNK         0.0169 
     16 S16        27.3136  -43.6711  -53.5296 S.3       11 UNK        -0.2669 
     17 C17        27.1017  -42.5740  -54.9767 C.3       11 UNK        -0.0850 
     18 CA         25.7880  -42.8507  -55.7647 C.3       10 UNK         0.0855 
     19 C          25.3350  -41.6404  -56.6419 C.2       10 UNK         0.5543 
     20 N          24.6610  -41.8561  -57.7654 N.am      10 UNK        -0.7343 
     21 O          25.5609  -40.4860  -56.2863 O.2       10 UNK        -0.5027 
     22 N          25.8125  -44.1441  -56.4738 N.am      10 UNK        -0.4495 
     23 C          26.6050  -44.4777  -57.5011 C.2       10 UNK         0.4903 
     24 O          27.4724  -43.7378  -57.9672 O.2       10 UNK        -0.4860 
     25 CA         26.3722  -45.8731  -58.1163 C.3       9 UNK         0.0227 
     26 CB         27.1847  -46.0858  -59.4035 C.3       9 UNK        -0.1964 
     27 N          26.6646  -46.9631  -57.1801 N.am      9 UNK        -0.4231 
     28 C          25.8847  -47.3136  -56.1474 C.2       9 UNK         0.5014 
     29 O          24.8181  -46.7536  -55.8800 O.2       9 UNK        -0.5270 
     30 CA         26.3957  -48.4647  -55.2629 C.3       8 UNK         0.0284 
     31 CB         25.4495  -48.7847  -54.0849 C.3       8 UNK        -0.1977 
     32 N          26.6969  -49.6744  -56.0347 N.am      8 UNK        -0.4342 
     33 C          25.8497  -50.3907  -56.7894 C.2       8 UNK         0.5039 
     34 O          24.6507  -50.1366  -56.9227 O.2       8 UNK        -0.5547 
     35 CA         26.4677  -51.5976  -57.5202 C.3       7 UNK         0.0281 
     36 CB         25.4422  -52.3957  -58.3549 C.3       7 UNK        -0.1963 
     37 N          27.6235  -51.2124  -58.3387 N.am      7 UNK        -0.4444 
     38 C          27.6492  -50.3501  -59.3680 C.2       7 UNK         0.5104 
     39 O          26.6589  -49.7738  -59.8194 O.2       7 UNK        -0.5100 
     40 CA         29.0402  -50.1041  -59.9897 C.3       6 UNK         0.0396 
     41 CB         29.0898  -48.9138  -60.9688 C.3       6 UNK        -0.1801 
     42 N          30.1096  -49.9924  -58.9898 N.am      6 UNK        -0.4747 
     43 C          30.1723  -49.1386  -57.9546 C.2       6 UNK         0.5012 
     44 O          29.3210  -48.2785  -57.7053 O.2       6 UNK        -0.5003 
     45 CA         31.4117  -49.3058  -57.0486 C.3       5 UNK         0.0782 
     46 C46        32.6677  -48.5927  -57.6396 C.3       11 UNK        -0.0868 
     47 S47        33.1545  -47.0147  -56.8551 S.3       11 UNK        -0.2515 
     48 C48        31.9890  -45.8248  -57.5848 C.3       11 UNK         0.0199 
     49 N          31.1653  -48.9709  -55.6424 N.am      5 UNK        -0.4607 
     50 C          30.2106  -49.4828  -54.8559 C.2       4 UNK         0.5031 
     51 O          29.3726  -50.3061  -55.2335 O.2       4 UNK        -0.5119 
     52 CA         30.2317  -49.0010  -53.3924 C.3       4 UNK         0.0263 
     53 CB         29.1309  -49.6447  -52.5240 C.3       4 UNK        -0.1967 
     54 N          31.5508  -49.1820  -52.7723 N.am      4 UNK        -0.4237 
     55 C          32.2275  -50.3358  -52.6245 C.2       3 UNK         0.4908 
     56 O          31.7983  -51.4353  -52.9763 O.2       3 UNK        -0.5102 
     57 CA         33.6281  -50.2728  -51.9867 C.3       3 UNK         0.0241 
     58 CB         34.7092  -50.6048  -53.0299 C.3       3 UNK        -0.1971 
     59 N          33.9222  -48.9738  -51.3760 N.am      3 UNK        -0.4139 
     60 C          33.5009  -48.6060  -50.1557 C.2       2 UNK         0.5016 
     61 O          32.8841  -49.3545  -49.3967 O.2       2 UNK        -0.5319 
     62 CA         33.7949  -47.1649  -49.6944 C.3       2 UNK         0.0286 
     63 CB         34.9820  -47.1463  -48.7177 C.3       2 UNK        -0.1963 
     64 N          34.0609  -46.2210  -50.7837 N.am      2 UNK        -0.4790 
     65 C          33.1854  -45.8659  -51.7359 C.2       1 UNK         0.5024 
     66 O          32.0316  -46.2926  -51.7936 O.2       1 UNK        -0.4888 
     67 H67        37.5595  -45.3138  -53.9188 H         1 UNK         0.0892 
     68 H68        37.6892  -46.9877  -53.3719 H         1 UNK         0.0892 
     69 H69        37.2145  -46.6363  -55.0360 H         1 UNK         0.0892 
     70 H70        35.6886  -44.3200  -53.2117 H         1 UNK         0.3107 
     71 H71        33.1214  -45.1430  -53.7309 H         1 UNK         0.0773 
     72 H72        34.0143  -43.1896  -51.5394 H         1 UNK         0.0680 
     73 H73        32.4012  -43.2844  -52.1928 H         1 UNK         0.0680 
     74 H74        31.7481  -41.2835  -53.7567 H         1 UNK         0.0650 
     75 H75        32.5044  -41.1545  -55.3259 H         1 UNK         0.0650 
     76 H76        33.0035  -43.5238  -56.5274 H         1 UNK         0.1397 
     77 H77        29.6806  -46.2102  -56.2042 H         1 UNK         0.1363 
     78 H78        30.0122  -42.8744  -53.5294 H         1 UNK         0.1355 
     79 H79        27.7888  -45.5948  -54.8723 H         1 UNK         0.0707 
     80 H80        28.6103  -45.6889  -53.3359 H         1 UNK         0.0707 
     81 H81        27.9692  -42.6225  -55.6348 H         1 UNK         0.1034 
     82 H82        27.1036  -41.5591  -54.5761 H         1 UNK         0.1034 
     83 H83        24.9887  -42.9465  -55.0291 H         1 UNK         0.0482 
     84 H84        24.4520  -42.7956  -58.0621 H         1 UNK         0.3460 
     85 H85        24.3604  -41.0705  -58.3206 H         1 UNK         0.3460 
     86 H86        25.1583  -44.8489  -56.1451 H         1 UNK         0.2989 
     87 H87        25.3162  -45.9299  -58.3888 H         1 UNK         0.0559 
     88 H88        26.9836  -45.2988  -60.1315 H         1 UNK         0.0848 
     89 H89        26.9248  -47.0326  -59.8758 H         1 UNK         0.0848 
     90 H90        28.2572  -46.0825  -59.2047 H         1 UNK         0.0848 
     91 H91        27.5329  -47.4697  -57.3353 H         1 UNK         0.3144 
     92 H92        27.3434  -48.1274  -54.8422 H         1 UNK         0.0727 
     93 H93        25.8285  -49.6056  -53.4770 H         1 UNK         0.0790 
     94 H94        24.4525  -49.0612  -54.4296 H         1 UNK         0.0790 
     95 H95        25.3374  -47.9190  -53.4309 H         1 UNK         0.0790 
     96 H96        27.6671  -49.9813  -55.9806 H         1 UNK         0.3215 
     97 H97        26.8456  -52.2643  -56.7430 H         1 UNK         0.0863 
     98 H98        25.9042  -53.2611  -58.8297 H         1 UNK         0.0808 
     99 H99        24.9897  -51.7853  -59.1371 H         1 UNK         0.0808 
    100 H100       24.6325  -52.7657  -57.7249 H         1 UNK         0.0808 
    101 H101       28.5089  -51.6037  -58.0484 H         1 UNK         0.3118 
    102 H102       29.2572  -51.0022  -60.5701 H         1 UNK         0.0546 
    103 H103       28.9979  -47.9609  -60.4528 H         1 UNK         0.0828 
    104 H104       28.2904  -48.9693  -61.7087 H         1 UNK         0.0828 
    105 H105       30.0317  -48.8984  -61.5167 H         1 UNK         0.0828 
    106 H106       30.8636  -50.6569  -59.1030 H         1 UNK         0.3005 
    107 H107       31.6260  -50.3771  -57.0390 H         1 UNK         0.1257 
    108 H108       33.5248  -49.2566  -57.5161 H         1 UNK         0.0775 
    109 H109       32.5919  -48.4416  -58.7188 H         1 UNK         0.0775 
    110 H110       32.5114  -45.2098  -58.3190 H         1 UNK         0.0840 
    111 H111       31.1939  -46.3385  -58.1257 H         1 UNK         0.0840 
    112 H112       31.7993  -48.2856  -55.2560 H         1 UNK         0.2987 
    113 H113       30.0468  -47.9258  -53.4172 H         1 UNK         0.0785 
    114 H114       29.1639  -49.2696  -51.5012 H         1 UNK         0.0798 
    115 H115       29.2244  -50.7305  -52.4862 H         1 UNK         0.0798 
    116 H116       28.1414  -49.4198  -52.9182 H         1 UNK         0.0798 
    117 H117       31.9865  -48.3299  -52.4376 H         1 UNK         0.3079 
    118 H118       33.6671  -51.0408  -51.2111 H         1 UNK         0.0794 
    119 H119       34.5870  -51.6217  -53.4050 H         1 UNK         0.0786 
    120 H120       35.7104  -50.5347  -52.6046 H         1 UNK         0.0786 
    121 H121       34.6608  -49.9373  -53.8908 H         1 UNK         0.0786 
    122 H122       34.4005  -48.2982  -51.9669 H         1 UNK         0.3032 
    123 H123       32.9068  -46.8148  -49.1634 H         1 UNK         0.1094 
    124 H124       35.9062  -47.4677  -49.1996 H         1 UNK         0.0794 
    125 H125       35.1442  -46.1494  -48.3073 H         1 UNK         0.0794 
    126 H126       34.8047  -47.8156  -47.8744 H         1 UNK         0.0794 
    127 H127       34.9935  -45.8359  -50.8327 H         1 UNK         0.3016 
@<TRIPOS>BOND
     1    1    2 1    
     2    1   67 1    
     3    1   68 1    
     4    1   69 1    
     5    2    3 2    
     6    2    4 am   BACKBONE|DICT|INTERRES
     7    4    5 1    
     8    4   70 1    
     9    5    6 1    
    10    5   65 1    
    11    5   71 1    
    12    6    7 1    
    13    6   72 1    
    14    6   73 1    
    15    7    8 1    
    16    8    9 1    
    17    8   74 1    
    18    8   75 1    
    19    9   10 ar   
    20    9   14 ar   
    21   10   11 ar   
    22   10   76 1    
    23   11   12 ar   
    24   11   48 1    
    25   12   13 ar   
    26   12   77 1    
    27   13   14 ar   
    28   13   15 1    
    29   14   78 1    
    30   15   16 1    
    31   15   79 1    
    32   15   80 1    
    33   16   17 1    
    34   17   18 1    
    35   17   81 1    
    36   17   82 1    
    37   18   19 1    
    38   18   22 1    
    39   18   83 1    
    40   19   20 am   BACKBONE|DICT|INTERRES
    41   19   21 2    
    42   20   84 1    
    43   20   85 1    
    44   22   23 am   BACKBONE|DICT|INTERRES
    45   22   86 1    
    46   23   24 2    
    47   23   25 1    
    48   25   26 1    
    49   25   27 1    
    50   25   87 1    
    51   26   88 1    
    52   26   89 1    
    53   26   90 1    
    54   27   28 am   BACKBONE|DICT|INTERRES
    55   27   91 1    
    56   28   29 2    
    57   28   30 1    
    58   30   31 1    
    59   30   32 1    
    60   30   92 1    
    61   31   93 1    
    62   31   94 1    
    63   31   95 1    
    64   32   33 am   BACKBONE|DICT|INTERRES
    65   32   96 1    
    66   33   34 2    
    67   33   35 1    
    68   35   36 1    
    69   35   37 1    
    70   35   97 1    
    71   36   98 1    
    72   36   99 1    
    73   36  100 1    
    74   37   38 am   BACKBONE|DICT|INTERRES
    75   37  101 1    
    76   38   39 2    
    77   38   40 1    
    78   40   41 1    
    79   40   42 1    
    80   40  102 1    
    81   41  103 1    
    82   41  104 1    
    83   41  105 1    
    84   42   43 am   BACKBONE|DICT|INTERRES
    85   42  106 1    
    86   43   44 2    
    87   43   45 1    
    88   45   46 1    
    89   45   49 1    
    90   45  107 1    
    91   46   47 1    
    92   46  108 1    
    93   46  109 1    
    94   47   48 1    
    95   48  110 1    
    96   48  111 1    
    97   49   50 am   BACKBONE|DICT|INTERRES
    98   49  112 1    
    99   50   51 2    
   100   50   52 1    
   101   52   53 1    
   102   52   54 1    
   103   52  113 1    
   104   53  114 1    
   105   53  115 1    
   106   53  116 1    
   107   54   55 am   BACKBONE|DICT|INTERRES
   108   54  117 1    
   109   55   56 2    
   110   55   57 1    
   111   57   58 1    
   112   57   59 1    
   113   57  118 1    
   114   58  119 1    
   115   58  120 1    
   116   58  121 1    
   117   59   60 am   BACKBONE|DICT|INTERRES
   118   59  122 1    
   119   60   61 2    
   120   60   62 1    
   121   62   63 1    
   122   62   64 1    
   123   62  123 1    
   124   63  124 1    
   125   63  125 1    
   126   63  126 1    
   127   64   65 am   BACKBONE|DICT|INTERRES
   128   64  127 1    
   129   65   66 2    
@<TRIPOS>SUBSTRUCTURE
     1 UNK         1 GROUP             0       ****    0 ROOT    
