@<TRIPOS>MOLECULE
3R134
127   129    1
SMALL
USER_CHARGES


@<TRIPOS>ATOM
      1 CA         38.7370  -47.1810  -52.5504 C.3       0 UNK        -0.1968 
      2 C          37.6411  -47.6334  -53.5044 C.2       0 UNK         0.4852 
      3 O          37.8615  -48.5510  -54.2969 O.2       0 UNK        -0.5359 
      4 N          36.4678  -46.9912  -53.4397 N.am      1 UNK        -0.4300 
      5 CA         35.2830  -47.3152  -54.2416 C.3       1 UNK         0.0863 
      6 C6         34.2208  -46.1902  -54.1817 C.3       11 UNK        -0.0953 
      7 S7         34.8781  -44.5693  -54.6973 S.3       11 UNK        -0.2369 
      8 C8         33.9660  -44.2610  -56.2464 C.3       11 UNK         0.0226 
      9 C9         32.4990  -43.8792  -56.0508 C.ar      11 UNK        -0.0699 
     10 C10        32.0967  -43.0208  -55.0198 C.ar      11 UNK        -0.0804 
     11 C11        30.7581  -42.6381  -54.8921 C.ar      11 UNK        -0.0871 
     12 C12        29.8211  -43.0942  -55.8227 C.ar      11 UNK        -0.1008 
     13 C13        30.2007  -43.9670  -56.8460 C.ar      11 UNK        -0.0735 
     14 C14        31.5412  -44.3518  -56.9541 C.ar      11 UNK        -0.0945 
     15 C15        29.1731  -44.4802  -57.8469 C.3       11 UNK         0.0169 
     16 S16        27.9239  -45.5468  -57.0581 S.3       11 UNK        -0.2669 
     17 C17        26.6421  -44.3415  -56.5549 C.3       11 UNK        -0.0850 
     18 CA         25.1931  -44.8765  -56.7110 C.3       10 UNK         0.0855 
     19 C          24.1617  -43.7871  -56.2924 C.2       10 UNK         0.5543 
     20 N          23.3271  -43.2804  -57.1916 N.am      10 UNK        -0.7343 
     21 O          24.1224  -43.3926  -55.1300 O.2       10 UNK        -0.5027 
     22 N          24.9784  -45.4794  -58.0368 N.am      10 UNK        -0.4495 
     23 C          23.9596  -46.2789  -58.3789 C.2       10 UNK         0.4903 
     24 O          22.9992  -46.5298  -57.6509 O.2       10 UNK        -0.4860 
     25 CA         24.0507  -46.9417  -59.7668 C.3       9 UNK         0.0227 
     26 CB         23.4204  -46.0383  -60.8392 C.3       9 UNK        -0.1964 
     27 N          25.4278  -47.2783  -60.1522 N.am      9 UNK        -0.4231 
     28 C          26.2005  -48.1691  -59.5125 C.2       9 UNK         0.5014 
     29 O          25.8017  -48.8615  -58.5736 O.2       9 UNK        -0.5270 
     30 CA         27.6615  -48.3077  -59.9713 C.3       8 UNK         0.0284 
     31 CB         28.1608  -47.1608  -60.8759 C.3       8 UNK        -0.1977 
     32 N          28.4958  -48.3814  -58.7762 N.am      8 UNK        -0.4342 
     33 C          29.5315  -49.2021  -58.5790 C.2       8 UNK         0.5039 
     34 O          29.9631  -49.9803  -59.4313 O.2       8 UNK        -0.5547 
     35 CA         30.2141  -49.1418  -57.1998 C.3       7 UNK         0.0281 
     36 CB         31.5239  -48.3410  -57.2810 C.3       7 UNK        -0.1963 
     37 N          29.3729  -48.5545  -56.1535 N.am      7 UNK        -0.4444 
     38 C          28.3386  -49.1656  -55.5569 C.2       7 UNK         0.5104 
     39 O          27.9523  -50.2966  -55.8552 O.2       7 UNK        -0.5100 
     40 CA         27.6199  -48.3827  -54.4408 C.3       6 UNK         0.0396 
     41 CB         27.1139  -49.2978  -53.3103 C.3       6 UNK        -0.1801 
     42 N          28.4953  -47.3520  -53.8842 N.am      6 UNK        -0.4747 
     43 C          28.1270  -46.1511  -53.4254 C.2       6 UNK         0.5012 
     44 O          26.9541  -45.7830  -53.3449 O.2       6 UNK        -0.5003 
     45 CA         29.2738  -45.2155  -52.9763 C.3       5 UNK         0.0782 
     46 C46        28.7797  -43.8098  -52.5442 C.3       11 UNK        -0.0868 
     47 S47        30.1614  -42.6696  -52.1820 S.3       11 UNK        -0.2515 
     48 C48        30.3207  -41.7406  -53.7433 C.3       11 UNK         0.0199 
     49 N          30.1109  -45.8475  -51.9489 N.am      5 UNK        -0.4607 
     50 C          31.0439  -46.7742  -52.1927 C.2       4 UNK         0.5031 
     51 O          31.2825  -47.1962  -53.3255 O.2       4 UNK        -0.5119 
     52 CA         31.8460  -47.3301  -51.0015 C.3       4 UNK         0.0263 
     53 CB         31.2987  -46.9323  -49.6109 C.3       4 UNK        -0.1967 
     54 N          32.0091  -48.7821  -51.1254 N.am      4 UNK        -0.4237 
     55 C          31.0396  -49.7117  -51.0959 C.2       3 UNK         0.4908 
     56 O          29.8615  -49.4696  -50.8273 O.2       3 UNK        -0.5102 
     57 CA         31.4695  -51.1597  -51.4152 C.3       3 UNK         0.0241 
     58 CB         30.2803  -52.0792  -51.7721 C.3       3 UNK        -0.1971 
     59 N          32.5208  -51.2282  -52.4402 N.am      3 UNK        -0.4139 
     60 C          32.4318  -50.8149  -53.7140 C.2       2 UNK         0.5016 
     61 O          31.4013  -50.4000  -54.2427 O.2       2 UNK        -0.5319 
     62 CA         33.7364  -50.8467  -54.5301 C.3       2 UNK         0.0286 
     63 CB         33.5276  -51.5341  -55.8909 C.3       2 UNK        -0.1963 
     64 N          34.2836  -49.5034  -54.7482 N.am      2 UNK        -0.4790 
     65 C          34.6850  -48.6626  -53.7838 C.2       1 UNK         0.5024 
     66 O          34.6085  -48.9148  -52.5769 O.2       1 UNK        -0.4888 
     67 H67        38.4123  -46.3546  -51.9184 H         1 UNK         0.0892 
     68 H68        39.0347  -48.0057  -51.9034 H         1 UNK         0.0892 
     69 H69        39.6120  -46.8545  -53.1117 H         1 UNK         0.0892 
     70 H70        36.3425  -46.2506  -52.7652 H         1 UNK         0.3107 
     71 H71        35.6068  -47.4181  -55.2797 H         1 UNK         0.0773 
     72 H72        33.3620  -46.4436  -54.8061 H         1 UNK         0.0680 
     73 H73        33.8385  -46.0783  -53.1667 H         1 UNK         0.0680 
     74 H74        34.0554  -45.1427  -56.8832 H         1 UNK         0.0650 
     75 H75        34.4599  -43.4468  -56.7778 H         1 UNK         0.0650 
     76 H76        32.8236  -42.6485  -54.3113 H         1 UNK         0.1397 
     77 H77        28.7910  -42.7820  -55.7376 H         1 UNK         0.1363 
     78 H78        31.8463  -45.0049  -57.7595 H         1 UNK         0.1355 
     79 H79        28.6990  -43.6410  -58.3570 H         1 UNK         0.0707 
     80 H80        29.6659  -45.0635  -58.6263 H         1 UNK         0.0707 
     81 H81        26.8247  -44.0702  -55.5139 H         1 UNK         0.1034 
     82 H82        26.7604  -43.4235  -57.1330 H         1 UNK         0.1034 
     83 H83        25.0746  -45.6860  -55.9877 H         1 UNK         0.0482 
     84 H84        23.3485  -43.6059  -58.1445 H         1 UNK         0.3460 
     85 H85        22.6626  -42.5769  -56.9106 H         1 UNK         0.3460 
     86 H86        25.7219  -45.3385  -58.7030 H         1 UNK         0.2989 
     87 H87        23.4792  -47.8715  -59.7267 H         1 UNK         0.0559 
     88 H88        22.3887  -45.7922  -60.5833 H         1 UNK         0.0848 
     89 H89        23.4006  -46.5304  -61.8118 H         1 UNK         0.0848 
     90 H90        23.9615  -45.0977  -60.9489 H         1 UNK         0.0848 
     91 H91        25.8270  -46.7625  -60.9233 H         1 UNK         0.3144 
     92 H92        27.7269  -49.2463  -60.5254 H         1 UNK         0.0727 
     93 H93        28.0576  -46.1873  -60.3946 H         1 UNK         0.0790 
     94 H94        27.6184  -47.1314  -61.8215 H         1 UNK         0.0790 
     95 H95        29.2144  -47.2921  -61.1237 H         1 UNK         0.0790 
     96 H96        28.1851  -47.8168  -57.9957 H         1 UNK         0.3215 
     97 H97        30.4536  -50.1658  -56.9054 H         1 UNK         0.0863 
     98 H98        32.0297  -48.3140  -56.3152 H         1 UNK         0.0808 
     99 H99        31.3455  -47.3137  -57.5972 H         1 UNK         0.0808 
    100 H100       32.2122  -48.7899  -57.9982 H         1 UNK         0.0808 
    101 H101       29.6054  -47.6173  -55.8588 H         1 UNK         0.3118 
    102 H102       26.7599  -47.9015  -54.9113 H         1 UNK         0.0546 
    103 H103       27.9370  -49.8303  -52.8325 H         1 UNK         0.0828 
    104 H104       26.4152  -50.0443  -53.6894 H         1 UNK         0.0828 
    105 H105       26.5921  -48.7286  -52.5411 H         1 UNK         0.0828 
    106 H106       29.4871  -47.5826  -53.8426 H         1 UNK         0.3005 
    107 H107       29.8937  -45.0759  -53.8643 H         1 UNK         0.1257 
    108 H108       28.1559  -43.8843  -51.6517 H         1 UNK         0.0775 
    109 H109       28.1486  -43.3651  -53.3156 H         1 UNK         0.0775 
    110 H110       29.3748  -41.2470  -53.9720 H         1 UNK         0.0840 
    111 H111       31.0527  -40.9432  -53.6064 H         1 UNK         0.0840 
    112 H112       29.9481  -45.5542  -50.9973 H         1 UNK         0.2987 
    113 H113       32.8482  -46.9093  -51.0904 H         1 UNK         0.0785 
    114 H114       31.3481  -45.8530  -49.4613 H         1 UNK         0.0798 
    115 H115       31.8876  -47.3880  -48.8148 H         1 UNK         0.0798 
    116 H116       30.2619  -47.2398  -49.4699 H         1 UNK         0.0798 
    117 H117       32.9291  -49.0732  -51.4414 H         1 UNK         0.3079 
    118 H118       31.9152  -51.5460  -50.4974 H         1 UNK         0.0794 
    119 H119       30.6132  -53.0955  -51.9822 H         1 UNK         0.0786 
    120 H120       29.7349  -51.7176  -52.6444 H         1 UNK         0.0786 
    121 H121       29.5690  -52.1362  -50.9473 H         1 UNK         0.0786 
    122 H122       33.4261  -51.5300  -52.1061 H         1 UNK         0.3032 
    123 H123       34.4816  -51.4232  -53.9774 H         1 UNK         0.1094 
    124 H124       32.8332  -50.9803  -56.5232 H         1 UNK         0.0794 
    125 H125       34.4675  -51.6366  -56.4336 H         1 UNK         0.0794 
    126 H126       33.1184  -52.5369  -55.7612 H         1 UNK         0.0794 
    127 H127       34.3652  -49.2091  -55.7102 H         1 UNK         0.3016 
@<TRIPOS>BOND
     1    1    2 1    
     2    1   67 1    
     3    1   68 1    
     4    1   69 1    
     5    2    3 2    
     6    2    4 am   BACKBONE|DICT|INTERRES
     7    4    5 1    
     8    4   70 1    
     9    5    6 1    
    10    5   65 1    
    11    5   71 1    
    12    6    7 1    
    13    6   72 1    
    14    6   73 1    
    15    7    8 1    
    16    8    9 1    
    17    8   74 1    
    18    8   75 1    
    19    9   10 ar   
    20    9   14 ar   
    21   10   11 ar   
    22   10   76 1    
    23   11   12 ar   
    24   11   48 1    
    25   12   13 ar   
    26   12   77 1    
    27   13   14 ar   
    28   13   15 1    
    29   14   78 1    
    30   15   16 1    
    31   15   79 1    
    32   15   80 1    
    33   16   17 1    
    34   17   18 1    
    35   17   81 1    
    36   17   82 1    
    37   18   19 1    
    38   18   22 1    
    39   18   83 1    
    40   19   20 am   BACKBONE|DICT|INTERRES
    41   19   21 2    
    42   20   84 1    
    43   20   85 1    
    44   22   23 am   BACKBONE|DICT|INTERRES
    45   22   86 1    
    46   23   24 2    
    47   23   25 1    
    48   25   26 1    
    49   25   27 1    
    50   25   87 1    
    51   26   88 1    
    52   26   89 1    
    53   26   90 1    
    54   27   28 am   BACKBONE|DICT|INTERRES
    55   27   91 1    
    56   28   29 2    
    57   28   30 1    
    58   30   31 1    
    59   30   32 1    
    60   30   92 1    
    61   31   93 1    
    62   31   94 1    
    63   31   95 1    
    64   32   33 am   BACKBONE|DICT|INTERRES
    65   32   96 1    
    66   33   34 2    
    67   33   35 1    
    68   35   36 1    
    69   35   37 1    
    70   35   97 1    
    71   36   98 1    
    72   36   99 1    
    73   36  100 1    
    74   37   38 am   BACKBONE|DICT|INTERRES
    75   37  101 1    
    76   38   39 2    
    77   38   40 1    
    78   40   41 1    
    79   40   42 1    
    80   40  102 1    
    81   41  103 1    
    82   41  104 1    
    83   41  105 1    
    84   42   43 am   BACKBONE|DICT|INTERRES
    85   42  106 1    
    86   43   44 2    
    87   43   45 1    
    88   45   46 1    
    89   45   49 1    
    90   45  107 1    
    91   46   47 1    
    92   46  108 1    
    93   46  109 1    
    94   47   48 1    
    95   48  110 1    
    96   48  111 1    
    97   49   50 am   BACKBONE|DICT|INTERRES
    98   49  112 1    
    99   50   51 2    
   100   50   52 1    
   101   52   53 1    
   102   52   54 1    
   103   52  113 1    
   104   53  114 1    
   105   53  115 1    
   106   53  116 1    
   107   54   55 am   BACKBONE|DICT|INTERRES
   108   54  117 1    
   109   55   56 2    
   110   55   57 1    
   111   57   58 1    
   112   57   59 1    
   113   57  118 1    
   114   58  119 1    
   115   58  120 1    
   116   58  121 1    
   117   59   60 am   BACKBONE|DICT|INTERRES
   118   59  122 1    
   119   60   61 2    
   120   60   62 1    
   121   62   63 1    
   122   62   64 1    
   123   62  123 1    
   124   63  124 1    
   125   63  125 1    
   126   63  126 1    
   127   64   65 am   BACKBONE|DICT|INTERRES
   128   64  127 1    
   129   65   66 2    
@<TRIPOS>SUBSTRUCTURE
     1 UNK         1 GROUP             0       ****    0 ROOT    
