@<TRIPOS>MOLECULE
3R134
127   129    1
SMALL
USER_CHARGES


@<TRIPOS>ATOM
      1 CA         27.3293  -48.2538  -50.9706 C.3       0 UNK        -0.1968 
      2 C          28.8356  -48.0494  -50.9389 C.2       0 UNK         0.4852 
      3 O          29.4655  -48.2559  -49.9001 O.2       0 UNK        -0.5359 
      4 N          29.4254  -47.6701  -52.0785 N.am      1 UNK        -0.4300 
      5 CA         30.8563  -47.4281  -52.2912 C.3       1 UNK         0.0863 
      6 C6         31.0568  -46.4864  -53.5069 C.3       11 UNK        -0.0953 
      7 S7         32.6297  -45.5679  -53.4646 S.3       11 UNK        -0.2369 
      8 C8         32.1547  -44.0154  -54.2939 C.3       11 UNK         0.0226 
      9 C9         31.6164  -44.2568  -55.6985 C.ar      11 UNK        -0.0699 
     10 C10        32.4776  -44.6796  -56.7156 C.ar      11 UNK        -0.0804 
     11 C11        31.9880  -44.9384  -58.0001 C.ar      11 UNK        -0.0871 
     12 C12        30.6312  -44.7382  -58.2692 C.ar      11 UNK        -0.1008 
     13 C13        29.7636  -44.2943  -57.2675 C.ar      11 UNK        -0.0735 
     14 C14        30.2592  -44.0629  -55.9809 C.ar      11 UNK        -0.0945 
     15 C15        28.2947  -44.0666  -57.5888 C.3       11 UNK         0.0169 
     16 S16        28.0374  -42.3912  -58.2507 S.3       11 UNK        -0.2669 
     17 C17        26.6440  -42.6321  -59.4080 C.3       11 UNK        -0.0850 
     18 CA         25.3554  -41.8993  -58.9554 C.3       10 UNK         0.0855 
     19 C          24.2985  -41.8711  -60.0989 C.2       10 UNK         0.5543 
     20 N          23.1288  -42.4800  -59.9434 N.am      10 UNK        -0.7343 
     21 O          24.5442  -41.2767  -61.1456 O.2       10 UNK        -0.5027 
     22 N          24.8479  -42.4356  -57.6830 N.am      10 UNK        -0.4495 
     23 C          24.0872  -41.7650  -56.8131 C.2       10 UNK         0.4903 
     24 O          23.7798  -40.5804  -56.9505 O.2       10 UNK        -0.4860 
     25 CA         23.5711  -42.5236  -55.5740 C.3       9 UNK         0.0227 
     26 CB         22.1400  -43.0437  -55.8154 C.3       9 UNK        -0.1964 
     27 N          24.4412  -43.5938  -55.0555 N.am      9 UNK        -0.4231 
     28 C          24.7860  -44.7555  -55.6283 C.2       9 UNK         0.5014 
     29 O          24.4719  -45.0879  -56.7750 O.2       9 UNK        -0.5270 
     30 CA         25.6305  -45.7031  -54.7704 C.3       8 UNK         0.0284 
     31 CB         24.7866  -46.3358  -53.6475 C.3       8 UNK        -0.1977 
     32 N          26.1807  -46.7511  -55.6258 N.am      8 UNK        -0.4342 
     33 C          27.3133  -47.4163  -55.3893 C.2       8 UNK         0.5039 
     34 O          28.0160  -47.2266  -54.3935 O.2       8 UNK        -0.5547 
     35 CA         27.7317  -48.4638  -56.4313 C.3       7 UNK         0.0281 
     36 CB         28.1190  -47.8015  -57.7648 C.3       7 UNK        -0.1963 
     37 N          28.8918  -49.1960  -55.9303 N.am      7 UNK        -0.4444 
     38 C          28.9863  -50.5186  -55.7621 C.2       7 UNK         0.5104 
     39 O          28.0932  -51.3174  -56.0501 O.2       7 UNK        -0.5100 
     40 CA         30.3215  -51.0155  -55.1698 C.3       6 UNK         0.0396 
     41 CB         30.5075  -52.5436  -55.2724 C.3       6 UNK        -0.1801 
     42 N          31.4837  -50.2998  -55.7188 N.am      6 UNK        -0.4747 
     43 C          31.8691  -50.2590  -57.0054 C.2       6 UNK         0.5012 
     44 O          31.3230  -50.9021  -57.9028 O.2       6 UNK        -0.5003 
     45 CA         33.0355  -49.3215  -57.3786 C.3       5 UNK         0.0782 
     46 C46        32.5009  -48.0887  -58.1505 C.3       11 UNK        -0.0868 
     47 S47        33.8377  -46.9427  -58.6414 S.3       11 UNK        -0.2515 
     48 C48        32.9139  -45.4389  -59.1030 C.3       11 UNK         0.0199 
     49 N          33.8684  -48.9202  -56.2392 N.am      5 UNK        -0.4607 
     50 C          34.7775  -49.6957  -55.6388 C.2       4 UNK         0.5031 
     51 O          34.8936  -50.9030  -55.8496 O.2       4 UNK        -0.5119 
     52 CA         35.7560  -49.0042  -54.6792 C.3       4 UNK         0.0263 
     53 CB         35.8825  -47.4803  -54.8909 C.3       4 UNK        -0.1967 
     54 N          35.3593  -49.2767  -53.3028 N.am      4 UNK        -0.4237 
     55 C          36.2037  -49.5866  -52.3086 C.2       3 UNK         0.4908 
     56 O          37.4233  -49.6824  -52.4561 O.2       3 UNK        -0.5102 
     57 CA         35.6151  -49.8116  -50.9008 C.3       3 UNK         0.0241 
     58 CB         35.9605  -48.6286  -49.9805 C.3       3 UNK        -0.1971 
     59 N          34.1648  -50.0047  -50.8942 N.am      3 UNK        -0.4139 
     60 C          33.5310  -51.0981  -51.3371 C.2       2 UNK         0.5016 
     61 O          34.1066  -52.1225  -51.7045 O.2       2 UNK        -0.5319 
     62 CA         31.9955  -51.0281  -51.4096 C.3       2 UNK         0.0286 
     63 CB         31.3624  -51.7898  -50.2347 C.3       2 UNK        -0.1963 
     64 N          31.4456  -49.6659  -51.4458 N.am      2 UNK        -0.4790 
     65 C          31.6455  -48.7548  -52.4086 C.2       1 UNK         0.5024 
     66 O          32.4002  -48.9524  -53.3629 O.2       1 UNK        -0.4888 
     67 H67        26.9778  -48.4482  -51.9836 H         1 UNK         0.0892 
     68 H68        27.0483  -49.1044  -50.3502 H         1 UNK         0.0892 
     69 H69        26.8205  -47.3684  -50.5908 H         1 UNK         0.0892 
     70 H70        28.8452  -47.5227  -52.9086 H         1 UNK         0.3107 
     71 H71        31.2332  -46.9158  -51.4034 H         1 UNK         0.0773 
     72 H72        30.9741  -47.0205  -54.4553 H         1 UNK         0.0680 
     73 H73        30.2558  -45.7454  -53.5201 H         1 UNK         0.0680 
     74 H74        33.0271  -43.3631  -54.3488 H         1 UNK         0.0650 
     75 H75        31.4191  -43.4933  -53.6799 H         1 UNK         0.0650 
     76 H76        33.5263  -44.8322  -56.4993 H         1 UNK         0.1397 
     77 H77        30.2452  -44.9234  -59.2625 H         1 UNK         0.1363 
     78 H78        29.5881  -43.7295  -55.2013 H         1 UNK         0.1355 
     79 H79        27.9661  -44.8144  -58.3108 H         1 UNK         0.0707 
     80 H80        27.6793  -44.2038  -56.6990 H         1 UNK         0.0707 
     81 H81        26.4430  -43.6939  -59.5584 H         1 UNK         0.1034 
     82 H82        26.9749  -42.2549  -60.3778 H         1 UNK         0.1034 
     83 H83        25.6243  -40.8546  -58.7869 H         1 UNK         0.0482 
     84 H84        22.4519  -42.4503  -60.6896 H         1 UNK         0.3460 
     85 H85        22.9219  -42.9746  -59.0908 H         1 UNK         0.3460 
     86 H86        24.9763  -43.4294  -57.5192 H         1 UNK         0.2989 
     87 H87        23.5154  -41.7860  -54.7717 H         1 UNK         0.0559 
     88 H88        21.7232  -43.4910  -54.9130 H         1 UNK         0.0848 
     89 H89        21.4741  -42.2313  -56.1098 H         1 UNK         0.0848 
     90 H90        22.1046  -43.7928  -56.6069 H         1 UNK         0.0848 
     91 H91        24.7995  -43.4198  -54.1260 H         1 UNK         0.3144 
     92 H92        26.4485  -45.1246  -54.3347 H         1 UNK         0.0727 
     93 H93        25.3853  -47.0036  -53.0300 H         1 UNK         0.0790 
     94 H94        23.9523  -46.9124  -54.0491 H         1 UNK         0.0790 
     95 H95        24.3704  -45.5759  -52.9852 H         1 UNK         0.0790 
     96 H96        25.6667  -46.8918  -56.4878 H         1 UNK         0.3215 
     97 H97        26.8877  -49.1383  -56.5902 H         1 UNK         0.0863 
     98 H98        28.9478  -47.1045  -57.6396 H         1 UNK         0.0808 
     99 H99        27.2830  -47.2506  -58.1966 H         1 UNK         0.0808 
    100 H100       28.4244  -48.5477  -58.4986 H         1 UNK         0.0808 
    101 H101       29.6439  -48.6175  -55.5857 H         1 UNK         0.3118 
    102 H102       30.2798  -50.7665  -54.1100 H         1 UNK         0.0546 
    103 H103       31.4528  -52.8578  -54.8301 H         1 UNK         0.0828 
    104 H104       30.4900  -52.8872  -56.3069 H         1 UNK         0.0828 
    105 H105       29.7119  -53.0694  -54.7435 H         1 UNK         0.0828 
    106 H106       32.0077  -49.7427  -55.0475 H         1 UNK         0.3005 
    107 H107       33.6720  -49.8891  -58.0617 H         1 UNK         0.1257 
    108 H108       31.7745  -47.5549  -57.5353 H         1 UNK         0.0775 
    109 H109       31.9705  -48.3966  -59.0538 H         1 UNK         0.0775 
    110 H110       32.3536  -45.6455  -60.0163 H         1 UNK         0.0840 
    111 H111       33.6252  -44.6504  -59.3519 H         1 UNK         0.0840 
    112 H112       33.8368  -47.9409  -55.9969 H         1 UNK         0.2987 
    113 H113       36.7324  -49.4500  -54.8812 H         1 UNK         0.0785 
    114 H114       36.1234  -47.2429  -55.9282 H         1 UNK         0.0798 
    115 H115       34.9659  -46.9518  -54.6305 H         1 UNK         0.0798 
    116 H116       36.6821  -47.0679  -54.2753 H         1 UNK         0.0798 
    117 H117       34.3600  -49.2486  -53.1232 H         1 UNK         0.3079 
    118 H118       36.0816  -50.7113  -50.4937 H         1 UNK         0.0794 
    119 H119       35.6098  -48.8009  -48.9627 H         1 UNK         0.0786 
    120 H120       35.5182  -47.6972  -50.3368 H         1 UNK         0.0786 
    121 H121       37.0396  -48.4767  -49.9270 H         1 UNK         0.0786 
    122 H122       33.6004  -49.2207  -50.6011 H         1 UNK         0.3032 
    123 H123       31.7060  -51.5280  -52.3359 H         1 UNK         0.1094 
    124 H124       31.5948  -51.3201  -49.2781 H         1 UNK         0.0794 
    125 H125       30.2774  -51.8369  -50.3309 H         1 UNK         0.0794 
    126 H126       31.7268  -52.8173  -50.1915 H         1 UNK         0.0794 
    127 H127       30.8055  -49.4057  -50.6989 H         1 UNK         0.3016 
@<TRIPOS>BOND
     1    1    2 1    
     2    1   67 1    
     3    1   68 1    
     4    1   69 1    
     5    2    3 2    
     6    2    4 am   BACKBONE|DICT|INTERRES
     7    4    5 1    
     8    4   70 1    
     9    5    6 1    
    10    5   65 1    
    11    5   71 1    
    12    6    7 1    
    13    6   72 1    
    14    6   73 1    
    15    7    8 1    
    16    8    9 1    
    17    8   74 1    
    18    8   75 1    
    19    9   10 ar   
    20    9   14 ar   
    21   10   11 ar   
    22   10   76 1    
    23   11   12 ar   
    24   11   48 1    
    25   12   13 ar   
    26   12   77 1    
    27   13   14 ar   
    28   13   15 1    
    29   14   78 1    
    30   15   16 1    
    31   15   79 1    
    32   15   80 1    
    33   16   17 1    
    34   17   18 1    
    35   17   81 1    
    36   17   82 1    
    37   18   19 1    
    38   18   22 1    
    39   18   83 1    
    40   19   20 am   BACKBONE|DICT|INTERRES
    41   19   21 2    
    42   20   84 1    
    43   20   85 1    
    44   22   23 am   BACKBONE|DICT|INTERRES
    45   22   86 1    
    46   23   24 2    
    47   23   25 1    
    48   25   26 1    
    49   25   27 1    
    50   25   87 1    
    51   26   88 1    
    52   26   89 1    
    53   26   90 1    
    54   27   28 am   BACKBONE|DICT|INTERRES
    55   27   91 1    
    56   28   29 2    
    57   28   30 1    
    58   30   31 1    
    59   30   32 1    
    60   30   92 1    
    61   31   93 1    
    62   31   94 1    
    63   31   95 1    
    64   32   33 am   BACKBONE|DICT|INTERRES
    65   32   96 1    
    66   33   34 2    
    67   33   35 1    
    68   35   36 1    
    69   35   37 1    
    70   35   97 1    
    71   36   98 1    
    72   36   99 1    
    73   36  100 1    
    74   37   38 am   BACKBONE|DICT|INTERRES
    75   37  101 1    
    76   38   39 2    
    77   38   40 1    
    78   40   41 1    
    79   40   42 1    
    80   40  102 1    
    81   41  103 1    
    82   41  104 1    
    83   41  105 1    
    84   42   43 am   BACKBONE|DICT|INTERRES
    85   42  106 1    
    86   43   44 2    
    87   43   45 1    
    88   45   46 1    
    89   45   49 1    
    90   45  107 1    
    91   46   47 1    
    92   46  108 1    
    93   46  109 1    
    94   47   48 1    
    95   48  110 1    
    96   48  111 1    
    97   49   50 am   BACKBONE|DICT|INTERRES
    98   49  112 1    
    99   50   51 2    
   100   50   52 1    
   101   52   53 1    
   102   52   54 1    
   103   52  113 1    
   104   53  114 1    
   105   53  115 1    
   106   53  116 1    
   107   54   55 am   BACKBONE|DICT|INTERRES
   108   54  117 1    
   109   55   56 2    
   110   55   57 1    
   111   57   58 1    
   112   57   59 1    
   113   57  118 1    
   114   58  119 1    
   115   58  120 1    
   116   58  121 1    
   117   59   60 am   BACKBONE|DICT|INTERRES
   118   59  122 1    
   119   60   61 2    
   120   60   62 1    
   121   62   63 1    
   122   62   64 1    
   123   62  123 1    
   124   63  124 1    
   125   63  125 1    
   126   63  126 1    
   127   64   65 am   BACKBONE|DICT|INTERRES
   128   64  127 1    
   129   65   66 2    
@<TRIPOS>SUBSTRUCTURE
     1 UNK         1 GROUP             0       ****    0 ROOT    
