@<TRIPOS>MOLECULE
3R134
127   129    1
SMALL
USER_CHARGES


@<TRIPOS>ATOM
      1 CA         37.8927  -47.9538  -51.5684 C.3       0 UNK        -0.1968 
      2 C          36.7810  -47.6442  -52.5594 C.2       0 UNK         0.4852 
      3 O          36.0964  -48.5611  -53.0170 O.2       0 UNK        -0.5359 
      4 N          36.5818  -46.3572  -52.8825 N.am      1 UNK        -0.4300 
      5 CA         35.5738  -45.8686  -53.8353 C.3       1 UNK         0.0863 
      6 C6         35.7840  -44.3737  -54.1823 C.3       11 UNK        -0.0953 
      7 S7         35.4866  -43.2332  -52.7839 S.3       11 UNK        -0.2369 
      8 C8         34.3803  -41.9915  -53.5301 C.3       11 UNK         0.0226 
      9 C9         33.0283  -42.5609  -53.9453 C.ar      11 UNK        -0.0699 
     10 C10        32.0671  -42.8785  -52.9787 C.ar      11 UNK        -0.0804 
     11 C11        30.8032  -43.3483  -53.3561 C.ar      11 UNK        -0.0871 
     12 C12        30.5191  -43.5142  -54.7147 C.ar      11 UNK        -0.1008 
     13 C13        31.4684  -43.2052  -55.6906 C.ar      11 UNK        -0.0735 
     14 C14        32.7216  -42.7259  -55.3008 C.ar      11 UNK        -0.0945 
     15 C15        31.1322  -43.4111  -57.1601 C.3       11 UNK         0.0169 
     16 S16        29.7946  -42.3114  -57.7195 S.3       11 UNK        -0.2669 
     17 C17        28.8968  -43.4385  -58.8429 C.3       11 UNK        -0.0850 
     18 CA         27.8237  -44.2964  -58.1028 C.3       10 UNK         0.0855 
     19 C          26.4369  -43.5885  -57.9891 C.2       10 UNK         0.5543 
     20 N          25.3192  -44.2818  -58.1721 N.am      10 UNK        -0.7343 
     21 O          26.3657  -42.3980  -57.6968 O.2       10 UNK        -0.5027 
     22 N          27.7695  -45.6861  -58.5892 N.am      10 UNK        -0.4495 
     23 C          27.4842  -46.0857  -59.8367 C.2       10 UNK         0.4903 
     24 O          27.3107  -45.3233  -60.7869 O.2       10 UNK        -0.4860 
     25 CA         27.3370  -47.6018  -60.0456 C.3       9 UNK         0.0227 
     26 CB         28.7057  -48.2477  -60.3167 C.3       9 UNK        -0.1964 
     27 N          26.7154  -48.2443  -58.8853 N.am      9 UNK        -0.4231 
     28 C          25.4091  -48.1996  -58.5898 C.2       9 UNK         0.5014 
     29 O          24.5700  -47.6723  -59.3218 O.2       9 UNK        -0.5270 
     30 CA         24.9674  -48.7866  -57.2323 C.3       8 UNK         0.0284 
     31 CB         23.5523  -49.4015  -57.2810 C.3       8 UNK        -0.1977 
     32 N          25.9327  -49.7171  -56.6315 N.am      8 UNK        -0.4342 
     33 C          26.3142  -50.9200  -57.0886 C.2       8 UNK         0.5039 
     34 O          25.8578  -51.4393  -58.1078 O.2       8 UNK        -0.5547 
     35 CA         27.4132  -51.6686  -56.3068 C.3       7 UNK         0.0281 
     36 CB         28.6712  -51.8202  -57.1794 C.3       7 UNK        -0.1963 
     37 N          27.7911  -51.0249  -55.0440 N.am      7 UNK        -0.4444 
     38 C          27.0782  -51.0664  -53.9097 C.2       7 UNK         0.5104 
     39 O          26.0427  -51.7184  -53.7759 O.2       7 UNK        -0.5100 
     40 CA         27.5751  -50.1842  -52.7467 C.3       6 UNK         0.0396 
     41 CB         28.6550  -50.9116  -51.9325 C.3       6 UNK        -0.1801 
     42 N          28.0727  -48.8739  -53.1904 N.am      6 UNK        -0.4747 
     43 C          27.3114  -47.9571  -53.8113 C.2       6 UNK         0.5012 
     44 O          26.1084  -48.1105  -54.0217 O.2       6 UNK        -0.5003 
     45 CA         27.9956  -46.6951  -54.3701 C.3       5 UNK         0.0782 
     46 C46        27.8994  -45.4866  -53.3999 C.3       11 UNK        -0.0868 
     47 S47        29.2383  -45.3565  -52.1705 S.3       11 UNK        -0.2515 
     48 C48        29.7310  -43.6050  -52.3006 C.3       11 UNK         0.0199 
     49 N          29.3402  -46.9966  -54.8864 N.am      5 UNK        -0.4607 
     50 C          29.5328  -47.6528  -56.0415 C.2       4 UNK         0.5031 
     51 O          28.6158  -47.9163  -56.8193 O.2       4 UNK        -0.5119 
     52 CA         30.9482  -48.1318  -56.3957 C.3       4 UNK         0.0263 
     53 CB         31.7327  -47.0588  -57.1595 C.3       4 UNK        -0.1967 
     54 N          31.7135  -48.5771  -55.2326 N.am      4 UNK        -0.4237 
     55 C          31.5109  -49.7508  -54.6148 C.2       3 UNK         0.4908 
     56 O          30.6362  -50.5476  -54.9492 O.2       3 UNK        -0.5102 
     57 CA         32.4104  -50.0977  -53.4128 C.3       3 UNK         0.0241 
     58 CB         33.6432  -50.8874  -53.8779 C.3       3 UNK        -0.1971 
     59 N          32.8433  -48.9237  -52.6560 N.am      3 UNK        -0.4139 
     60 C          32.0092  -48.0683  -52.0469 C.2       2 UNK         0.5016 
     61 O          30.7962  -48.2597  -51.9562 O.2       2 UNK        -0.5319 
     62 CA         32.6141  -46.7609  -51.4980 C.3       2 UNK         0.0286 
     63 CB         32.7800  -46.8411  -49.9731 C.3       2 UNK        -0.1963 
     64 N          33.8932  -46.3783  -52.1037 N.am      2 UNK        -0.4790 
     65 C          34.1192  -46.1736  -53.4122 C.2       1 UNK         0.5024 
     66 O          33.2497  -46.2782  -54.2763 O.2       1 UNK        -0.4888 
     67 H67        38.6267  -48.6170  -52.0252 H         1 UNK         0.0892 
     68 H68        38.4088  -47.0523  -51.2386 H         1 UNK         0.0892 
     69 H69        37.4836  -48.4518  -50.6898 H         1 UNK         0.0892 
     70 H70        37.1609  -45.6431  -52.4630 H         1 UNK         0.3107 
     71 H71        35.7343  -46.4312  -54.7576 H         1 UNK         0.0773 
     72 H72        35.1494  -44.1018  -55.0261 H         1 UNK         0.0680 
     73 H73        36.8054  -44.2167  -54.5319 H         1 UNK         0.0680 
     74 H74        34.8856  -41.5343  -54.3823 H         1 UNK         0.0650 
     75 H75        34.2214  -41.1894  -52.8080 H         1 UNK         0.0650 
     76 H76        32.3010  -42.7361  -51.9326 H         1 UNK         0.1397 
     77 H77        29.5520  -43.8668  -55.0329 H         1 UNK         0.1363 
     78 H78        33.4577  -42.4778  -56.0530 H         1 UNK         0.1355 
     79 H79        30.8139  -44.4425  -57.2933 H         1 UNK         0.0707 
     80 H80        32.0086  -43.2690  -57.7942 H         1 UNK         0.0707 
     81 H81        28.4448  -42.8558  -59.6478 H         1 UNK         0.1034 
     82 H82        29.6313  -44.0767  -59.3369 H         1 UNK         0.1034 
     83 H83        28.1474  -44.4135  -57.0681 H         1 UNK         0.0482 
     84 H84        25.3523  -45.2515  -58.4432 H         1 UNK         0.3460 
     85 H85        24.4314  -43.8129  -58.0843 H         1 UNK         0.3460 
     86 H86        27.9171  -46.4065  -57.8904 H         1 UNK         0.2989 
     87 H87        26.7023  -47.7654  -60.9192 H         1 UNK         0.0559 
     88 H88        29.3909  -48.1197  -59.4780 H         1 UNK         0.0848 
     89 H89        29.1784  -47.8041  -61.1940 H         1 UNK         0.0848 
     90 H90        28.6077  -49.3166  -60.5076 H         1 UNK         0.0848 
     91 H91        27.3478  -48.6040  -58.1775 H         1 UNK         0.3144 
     92 H92        24.9234  -47.9354  -56.5516 H         1 UNK         0.0727 
     93 H93        23.2568  -49.7924  -56.3074 H         1 UNK         0.0790 
     94 H94        23.4876  -50.2149  -58.0041 H         1 UNK         0.0790 
     95 H95        22.8101  -48.6553  -57.5670 H         1 UNK         0.0790 
     96 H96        26.3566  -49.3905  -55.7718 H         1 UNK         0.3215 
     97 H97        27.0285  -52.6662  -56.0846 H         1 UNK         0.0863 
     98 H98        29.1016  -50.8513  -57.4352 H         1 UNK         0.0808 
     99 H99        28.4437  -52.3338  -58.1145 H         1 UNK         0.0808 
    100 H100       29.4388  -52.4038  -56.6708 H         1 UNK         0.0808 
    101 H101       28.6892  -50.5482  -55.0322 H         1 UNK         0.3118 
    102 H102       26.7257  -50.0015  -52.0852 H         1 UNK         0.0546 
    103 H103       28.9980  -50.3057  -51.0936 H         1 UNK         0.0828 
    104 H104       29.5214  -51.1609  -52.5433 H         1 UNK         0.0828 
    105 H105       28.2687  -51.8455  -51.5224 H         1 UNK         0.0828 
    106 H106       29.0465  -48.6591  -52.9952 H         1 UNK         0.3005 
    107 H107       27.3822  -46.4124  -55.2294 H         1 UNK         0.1257 
    108 H108       26.9528  -45.5031  -52.8556 H         1 UNK         0.0775 
    109 H109       27.8474  -44.5662  -53.9783 H         1 UNK         0.0775 
    110 H110       28.8574  -42.9852  -52.5073 H         1 UNK         0.0840 
    111 H111       30.0903  -43.2886  -51.3203 H         1 UNK         0.0840 
    112 H112       30.1198  -46.8037  -54.2725 H         1 UNK         0.2987 
    113 H113       30.8328  -48.9844  -57.0687 H         1 UNK         0.0785 
    114 H114       32.6764  -47.4547  -57.5345 H         1 UNK         0.0798 
    115 H115       31.9637  -46.2048  -56.5245 H         1 UNK         0.0798 
    116 H116       31.1691  -46.6978  -58.0209 H         1 UNK         0.0798 
    117 H117       32.4070  -47.9290  -54.8692 H         1 UNK         0.3079 
    118 H118       31.8341  -50.7318  -52.7373 H         1 UNK         0.0794 
    119 H119       33.3495  -51.7855  -54.4233 H         1 UNK         0.0786 
    120 H120       34.2525  -51.2065  -53.0320 H         1 UNK         0.0786 
    121 H121       34.2761  -50.2941  -54.5395 H         1 UNK         0.0786 
    122 H122       33.8305  -48.6968  -52.6890 H         1 UNK         0.3032 
    123 H123       31.9131  -45.9590  -51.7259 H         1 UNK         0.1094 
    124 H124       33.5033  -47.6050  -49.6852 H         1 UNK         0.0794 
    125 H125       33.1101  -45.8885  -49.5584 H         1 UNK         0.0794 
    126 H126       31.8326  -47.0897  -49.4921 H         1 UNK         0.0794 
    127 H127       34.6762  -46.2716  -51.4755 H         1 UNK         0.3016 
@<TRIPOS>BOND
     1    1    2 1    
     2    1   67 1    
     3    1   68 1    
     4    1   69 1    
     5    2    3 2    
     6    2    4 am   BACKBONE|DICT|INTERRES
     7    4    5 1    
     8    4   70 1    
     9    5    6 1    
    10    5   65 1    
    11    5   71 1    
    12    6    7 1    
    13    6   72 1    
    14    6   73 1    
    15    7    8 1    
    16    8    9 1    
    17    8   74 1    
    18    8   75 1    
    19    9   10 ar   
    20    9   14 ar   
    21   10   11 ar   
    22   10   76 1    
    23   11   12 ar   
    24   11   48 1    
    25   12   13 ar   
    26   12   77 1    
    27   13   14 ar   
    28   13   15 1    
    29   14   78 1    
    30   15   16 1    
    31   15   79 1    
    32   15   80 1    
    33   16   17 1    
    34   17   18 1    
    35   17   81 1    
    36   17   82 1    
    37   18   19 1    
    38   18   22 1    
    39   18   83 1    
    40   19   20 am   BACKBONE|DICT|INTERRES
    41   19   21 2    
    42   20   84 1    
    43   20   85 1    
    44   22   23 am   BACKBONE|DICT|INTERRES
    45   22   86 1    
    46   23   24 2    
    47   23   25 1    
    48   25   26 1    
    49   25   27 1    
    50   25   87 1    
    51   26   88 1    
    52   26   89 1    
    53   26   90 1    
    54   27   28 am   BACKBONE|DICT|INTERRES
    55   27   91 1    
    56   28   29 2    
    57   28   30 1    
    58   30   31 1    
    59   30   32 1    
    60   30   92 1    
    61   31   93 1    
    62   31   94 1    
    63   31   95 1    
    64   32   33 am   BACKBONE|DICT|INTERRES
    65   32   96 1    
    66   33   34 2    
    67   33   35 1    
    68   35   36 1    
    69   35   37 1    
    70   35   97 1    
    71   36   98 1    
    72   36   99 1    
    73   36  100 1    
    74   37   38 am   BACKBONE|DICT|INTERRES
    75   37  101 1    
    76   38   39 2    
    77   38   40 1    
    78   40   41 1    
    79   40   42 1    
    80   40  102 1    
    81   41  103 1    
    82   41  104 1    
    83   41  105 1    
    84   42   43 am   BACKBONE|DICT|INTERRES
    85   42  106 1    
    86   43   44 2    
    87   43   45 1    
    88   45   46 1    
    89   45   49 1    
    90   45  107 1    
    91   46   47 1    
    92   46  108 1    
    93   46  109 1    
    94   47   48 1    
    95   48  110 1    
    96   48  111 1    
    97   49   50 am   BACKBONE|DICT|INTERRES
    98   49  112 1    
    99   50   51 2    
   100   50   52 1    
   101   52   53 1    
   102   52   54 1    
   103   52  113 1    
   104   53  114 1    
   105   53  115 1    
   106   53  116 1    
   107   54   55 am   BACKBONE|DICT|INTERRES
   108   54  117 1    
   109   55   56 2    
   110   55   57 1    
   111   57   58 1    
   112   57   59 1    
   113   57  118 1    
   114   58  119 1    
   115   58  120 1    
   116   58  121 1    
   117   59   60 am   BACKBONE|DICT|INTERRES
   118   59  122 1    
   119   60   61 2    
   120   60   62 1    
   121   62   63 1    
   122   62   64 1    
   123   62  123 1    
   124   63  124 1    
   125   63  125 1    
   126   63  126 1    
   127   64   65 am   BACKBONE|DICT|INTERRES
   128   64  127 1    
   129   65   66 2    
@<TRIPOS>SUBSTRUCTURE
     1 UNK         1 GROUP             0       ****    0 ROOT    
