@<TRIPOS>MOLECULE
3R134
127   129    1
SMALL
USER_CHARGES


@<TRIPOS>ATOM
      1 CA         30.9706  -46.0663  -52.4264 C.3       0 UNK        -0.1968 
      2 C          32.2772  -45.6597  -51.7651 C.2       0 UNK         0.4852 
      3 O          32.4450  -45.8729  -50.5625 O.2       0 UNK        -0.5359 
      4 N          33.2147  -45.0939  -52.5372 N.am      1 UNK        -0.4300 
      5 CA         34.5619  -44.7145  -52.0941 C.3       1 UNK         0.0863 
      6 C6         35.2065  -43.6548  -53.0252 C.3       11 UNK        -0.0953 
      7 S7         34.4398  -42.0119  -52.8328 S.3       11 UNK        -0.2369 
      8 C8         33.7420  -41.7109  -54.4860 C.3       11 UNK         0.0226 
      9 C9         32.4969  -42.5470  -54.7351 C.ar      11 UNK        -0.0699 
     10 C10        32.5217  -43.6032  -55.6482 C.ar      11 UNK        -0.0804 
     11 C11        31.3722  -44.3627  -55.8773 C.ar      11 UNK        -0.0871 
     12 C12        30.1941  -44.0631  -55.1854 C.ar      11 UNK        -0.1008 
     13 C13        30.1519  -43.0030  -54.2683 C.ar      11 UNK        -0.0735 
     14 C14        31.3112  -42.2508  -54.0574 C.ar      11 UNK        -0.0945 
     15 C15        28.9001  -42.6172  -53.4749 C.3       11 UNK         0.0169 
     16 S16        27.4709  -43.7442  -53.6079 S.3       11 UNK        -0.2669 
     17 C17        26.7299  -43.2056  -55.1885 C.3       11 UNK        -0.0850 
     18 CA         25.6377  -44.2089  -55.6694 C.3       10 UNK         0.0855 
     19 C          24.2161  -43.8766  -55.1398 C.2       10 UNK         0.5543 
     20 N          24.0614  -43.7086  -53.8344 N.am      10 UNK        -0.7343 
     21 O          23.2524  -43.7697  -55.8978 O.2       10 UNK        -0.5027 
     22 N          25.6120  -44.4238  -57.1211 N.am      10 UNK        -0.4495 
     23 C          26.5810  -44.9816  -57.8509 C.2       10 UNK         0.4903 
     24 O          27.7204  -45.2012  -57.4439 O.2       10 UNK        -0.4860 
     25 CA         26.2180  -45.3862  -59.2795 C.3       9 UNK         0.0227 
     26 CB         27.0325  -44.5927  -60.3167 C.3       9 UNK        -0.1964 
     27 N          26.4843  -46.8162  -59.4096 N.am      9 UNK        -0.4231 
     28 C          25.8366  -47.6490  -60.2335 C.2       9 UNK         0.5014 
     29 O          24.9600  -47.2908  -61.0215 O.2       9 UNK        -0.5270 
     30 CA         26.2154  -49.1352  -60.1612 C.3       8 UNK         0.0284 
     31 CB         27.5608  -49.3933  -60.8615 C.3       8 UNK        -0.1977 
     32 N          26.2832  -49.5952  -58.7731 N.am      8 UNK        -0.4342 
     33 C          25.2721  -50.1749  -58.1103 C.2       8 UNK         0.5039 
     34 O          24.1770  -50.4226  -58.6173 O.2       8 UNK        -0.5547 
     35 CA         25.5107  -50.5621  -56.6373 C.3       7 UNK         0.0281 
     36 CB         25.8990  -52.0456  -56.5302 C.3       7 UNK        -0.1963 
     37 N          26.5368  -49.7505  -55.9803 N.am      7 UNK        -0.4444 
     38 C          26.3806  -48.4617  -55.6411 C.2       7 UNK         0.5104 
     39 O          25.3202  -47.8490  -55.7626 O.2       7 UNK        -0.5100 
     40 CA         27.6190  -47.7200  -55.1000 C.3       6 UNK         0.0396 
     41 CB         27.5986  -47.6948  -53.5648 C.3       6 UNK        -0.1801 
     42 N          28.9017  -48.2590  -55.5613 N.am      6 UNK        -0.4747 
     43 C          29.2706  -48.4590  -56.8375 C.2       6 UNK         0.5012 
     44 O          28.5736  -48.1620  -57.8084 O.2       6 UNK        -0.5003 
     45 CA         30.6142  -49.1825  -57.0744 C.3       5 UNK         0.0782 
     46 C46        31.7337  -48.1987  -57.4978 C.3       11 UNK        -0.0868 
     47 S47        32.1842  -46.9854  -56.2062 S.3       11 UNK        -0.2515 
     48 C48        31.3964  -45.4946  -56.8897 C.3       11 UNK         0.0199 
     49 N          31.0386  -50.0370  -55.9584 N.am      5 UNK        -0.4607 
     50 C          30.3434  -51.0453  -55.4111 C.2       4 UNK         0.5031 
     51 O          29.2122  -51.3633  -55.7824 O.2       4 UNK        -0.5119 
     52 CA         31.0035  -51.8245  -54.2543 C.3       4 UNK         0.0263 
     53 CB         30.9354  -53.3415  -54.5041 C.3       4 UNK        -0.1967 
     54 N          32.4006  -51.4489  -54.0032 N.am      4 UNK        -0.4237 
     55 C          32.8047  -50.3494  -53.3546 C.2       3 UNK         0.4908 
     56 O          32.0401  -49.5056  -52.8804 O.2       3 UNK        -0.5102 
     57 CA         34.3194  -50.1387  -53.2775 C.3       3 UNK         0.0241 
     58 CB         34.8700  -49.6077  -54.6152 C.3       3 UNK        -0.1971 
     59 N          34.6129  -49.1852  -52.2142 N.am      3 UNK        -0.4139 
     60 C          35.7652  -49.1007  -51.5404 C.2       2 UNK         0.5016 
     61 O          36.7251  -49.8501  -51.7341 O.2       2 UNK        -0.5319 
     62 CA         35.8537  -47.9892  -50.4747 C.3       2 UNK         0.0286 
     63 CB         37.3027  -47.6991  -50.0271 C.3       2 UNK        -0.1963 
     64 N          35.1780  -46.7472  -50.8768 N.am      2 UNK        -0.4790 
     65 C          35.4492  -45.9689  -51.9361 C.2       1 UNK         0.5024 
     66 O          36.3299  -46.2118  -52.7630 O.2       1 UNK        -0.4888 
     67 H67        30.6377  -47.0280  -52.0367 H         1 UNK         0.0892 
     68 H68        30.1971  -45.3257  -52.2254 H         1 UNK         0.0892 
     69 H69        31.0809  -46.1687  -53.5047 H         1 UNK         0.0892 
     70 H70        33.0134  -44.9259  -53.5135 H         1 UNK         0.3107 
     71 H71        34.4821  -44.2670  -51.1006 H         1 UNK         0.0773 
     72 H72        35.1688  -43.9764  -54.0675 H         1 UNK         0.0680 
     73 H73        36.2644  -43.5272  -52.7875 H         1 UNK         0.0680 
     74 H74        34.5035  -41.8981  -55.2446 H         1 UNK         0.0650 
     75 H75        33.4828  -40.6545  -54.5687 H         1 UNK         0.0650 
     76 H76        33.4324  -43.8346  -56.1844 H         1 UNK         0.1397 
     77 H77        29.3163  -44.6653  -55.3721 H         1 UNK         0.1363 
     78 H78        31.2963  -41.4303  -53.3526 H         1 UNK         0.1355 
     79 H79        29.1698  -42.5605  -52.4193 H         1 UNK         0.0707 
     80 H80        28.5884  -41.6127  -53.7648 H         1 UNK         0.0707 
     81 H81        26.3268  -42.1968  -55.0802 H         1 UNK         0.1034 
     82 H82        27.5329  -43.1137  -55.9195 H         1 UNK         0.1034 
     83 H83        25.8565  -45.1927  -55.2543 H         1 UNK         0.0482 
     84 H84        24.8537  -43.7840  -53.2139 H         1 UNK         0.3460 
     85 H85        23.1481  -43.4930  -53.4666 H         1 UNK         0.3460 
     86 H86        24.6986  -44.2715  -57.5307 H         1 UNK         0.2989 
     87 H87        25.1545  -45.1970  -59.4421 H         1 UNK         0.0559 
     88 H88        28.1036  -44.7660  -60.2046 H         1 UNK         0.0848 
     89 H89        26.8612  -43.5210  -60.2095 H         1 UNK         0.0848 
     90 H90        26.7539  -44.8664  -61.3344 H         1 UNK         0.0848 
     91 H91        27.2008  -47.1816  -58.7844 H         1 UNK         0.3144 
     92 H92        25.4515  -49.7020  -60.6982 H         1 UNK         0.0727 
     93 H93        27.8163  -50.4530  -60.8475 H         1 UNK         0.0790 
     94 H94        28.3800  -48.8458  -60.3945 H         1 UNK         0.0790 
     95 H95        27.5189  -49.0844  -61.9068 H         1 UNK         0.0790 
     96 H96        27.1298  -49.3585  -58.2653 H         1 UNK         0.3215 
     97 H97        24.5688  -50.4166  -56.1037 H         1 UNK         0.0863 
     98 H98        26.0109  -52.3533  -55.4903 H         1 UNK         0.0808 
     99 H99        26.8383  -52.2548  -57.0439 H         1 UNK         0.0808 
    100 H100       25.1340  -52.6828  -56.9761 H         1 UNK         0.0808 
    101 H101       27.4437  -50.1854  -55.8419 H         1 UNK         0.3118 
    102 H102       27.5661  -46.6903  -55.4447 H         1 UNK         0.0546 
    103 H103       26.6508  -47.3017  -53.1940 H         1 UNK         0.0828 
    104 H104       28.3830  -47.0504  -53.1709 H         1 UNK         0.0828 
    105 H105       27.7298  -48.6908  -53.1403 H         1 UNK         0.0828 
    106 H106       29.5551  -48.5414  -54.8448 H         1 UNK         0.3005 
    107 H107       30.4379  -49.8553  -57.9168 H         1 UNK         0.1257 
    108 H108       31.4518  -47.6768  -58.4146 H         1 UNK         0.0775 
    109 H109       32.6339  -48.7593  -57.7542 H         1 UNK         0.0775 
    110 H110       31.9336  -45.1790  -57.7853 H         1 UNK         0.0840 
    111 H111       30.3802  -45.7291  -57.2104 H         1 UNK         0.0840 
    112 H112       31.9404  -49.8184  -55.5629 H         1 UNK         0.2987 
    113 H113       30.4218  -51.6042  -53.3565 H         1 UNK         0.0785 
    114 H114       29.9038  -53.6748  -54.6271 H         1 UNK         0.0798 
    115 H115       31.3532  -53.9012  -53.6671 H         1 UNK         0.0798 
    116 H116       31.4790  -53.6270  -55.4056 H         1 UNK         0.0798 
    117 H117       33.1016  -52.0723  -54.3792 H         1 UNK         0.3079 
    118 H118       34.7857  -51.0977  -53.0409 H         1 UNK         0.0794 
    119 H119       34.4402  -48.6378  -54.8689 H         1 UNK         0.0786 
    120 H120       34.6520  -50.2902  -55.4374 H         1 UNK         0.0786 
    121 H121       35.9530  -49.4878  -54.5769 H         1 UNK         0.0786 
    122 H122       33.8422  -48.5747  -51.9726 H         1 UNK         0.3032 
    123 H123       35.3119  -48.3672  -49.6060 H         1 UNK         0.1094 
    124 H124       37.9264  -47.3721  -50.8597 H         1 UNK         0.0794 
    125 H125       37.3341  -46.9256  -49.2598 H         1 UNK         0.0794 
    126 H126       37.7677  -48.5906  -49.6043 H         1 UNK         0.0794 
    127 H127       34.3634  -46.4868  -50.3268 H         1 UNK         0.3016 
@<TRIPOS>BOND
     1    1    2 1    
     2    1   67 1    
     3    1   68 1    
     4    1   69 1    
     5    2    3 2    
     6    2    4 am   BACKBONE|DICT|INTERRES
     7    4    5 1    
     8    4   70 1    
     9    5    6 1    
    10    5   65 1    
    11    5   71 1    
    12    6    7 1    
    13    6   72 1    
    14    6   73 1    
    15    7    8 1    
    16    8    9 1    
    17    8   74 1    
    18    8   75 1    
    19    9   10 ar   
    20    9   14 ar   
    21   10   11 ar   
    22   10   76 1    
    23   11   12 ar   
    24   11   48 1    
    25   12   13 ar   
    26   12   77 1    
    27   13   14 ar   
    28   13   15 1    
    29   14   78 1    
    30   15   16 1    
    31   15   79 1    
    32   15   80 1    
    33   16   17 1    
    34   17   18 1    
    35   17   81 1    
    36   17   82 1    
    37   18   19 1    
    38   18   22 1    
    39   18   83 1    
    40   19   20 am   BACKBONE|DICT|INTERRES
    41   19   21 2    
    42   20   84 1    
    43   20   85 1    
    44   22   23 am   BACKBONE|DICT|INTERRES
    45   22   86 1    
    46   23   24 2    
    47   23   25 1    
    48   25   26 1    
    49   25   27 1    
    50   25   87 1    
    51   26   88 1    
    52   26   89 1    
    53   26   90 1    
    54   27   28 am   BACKBONE|DICT|INTERRES
    55   27   91 1    
    56   28   29 2    
    57   28   30 1    
    58   30   31 1    
    59   30   32 1    
    60   30   92 1    
    61   31   93 1    
    62   31   94 1    
    63   31   95 1    
    64   32   33 am   BACKBONE|DICT|INTERRES
    65   32   96 1    
    66   33   34 2    
    67   33   35 1    
    68   35   36 1    
    69   35   37 1    
    70   35   97 1    
    71   36   98 1    
    72   36   99 1    
    73   36  100 1    
    74   37   38 am   BACKBONE|DICT|INTERRES
    75   37  101 1    
    76   38   39 2    
    77   38   40 1    
    78   40   41 1    
    79   40   42 1    
    80   40  102 1    
    81   41  103 1    
    82   41  104 1    
    83   41  105 1    
    84   42   43 am   BACKBONE|DICT|INTERRES
    85   42  106 1    
    86   43   44 2    
    87   43   45 1    
    88   45   46 1    
    89   45   49 1    
    90   45  107 1    
    91   46   47 1    
    92   46  108 1    
    93   46  109 1    
    94   47   48 1    
    95   48  110 1    
    96   48  111 1    
    97   49   50 am   BACKBONE|DICT|INTERRES
    98   49  112 1    
    99   50   51 2    
   100   50   52 1    
   101   52   53 1    
   102   52   54 1    
   103   52  113 1    
   104   53  114 1    
   105   53  115 1    
   106   53  116 1    
   107   54   55 am   BACKBONE|DICT|INTERRES
   108   54  117 1    
   109   55   56 2    
   110   55   57 1    
   111   57   58 1    
   112   57   59 1    
   113   57  118 1    
   114   58  119 1    
   115   58  120 1    
   116   58  121 1    
   117   59   60 am   BACKBONE|DICT|INTERRES
   118   59  122 1    
   119   60   61 2    
   120   60   62 1    
   121   62   63 1    
   122   62   64 1    
   123   62  123 1    
   124   63  124 1    
   125   63  125 1    
   126   63  126 1    
   127   64   65 am   BACKBONE|DICT|INTERRES
   128   64  127 1    
   129   65   66 2    
@<TRIPOS>SUBSTRUCTURE
     1 UNK         1 GROUP             0       ****    0 ROOT    
