@<TRIPOS>MOLECULE
3R134
127   129    1
SMALL
USER_CHARGES


@<TRIPOS>ATOM
      1 CA         37.1662  -44.0796  -52.0723 C.3       0 UNK        -0.1968 
      2 C          36.5254  -44.9512  -53.1423 C.2       0 UNK         0.4852 
      3 O          37.1978  -45.8125  -53.7110 O.2       0 UNK        -0.5359 
      4 N          35.2330  -44.7305  -53.4204 N.am      1 UNK        -0.4300 
      5 CA         34.4464  -45.4754  -54.4127 C.3       1 UNK         0.0863 
      6 C6         33.1154  -44.7623  -54.7444 C.3       11 UNK        -0.0953 
      7 S7         33.3730  -43.1368  -55.5383 S.3       11 UNK        -0.2369 
      8 C8         32.7718  -41.9639  -54.2777 C.3       11 UNK         0.0226 
      9 C9         31.3113  -42.2100  -53.9311 C.ar      11 UNK        -0.0699 
     10 C10        30.9662  -42.7578  -52.6932 C.ar      11 UNK        -0.0804 
     11 C11        29.6359  -43.0688  -52.4020 C.ar      11 UNK        -0.0871 
     12 C12        28.6428  -42.8040  -53.3494 C.ar      11 UNK        -0.1008 
     13 C13        28.9767  -42.2536  -54.5895 C.ar      11 UNK        -0.0735 
     14 C14        30.3101  -41.9375  -54.8666 C.ar      11 UNK        -0.0945 
     15 C15        27.9017  -42.0532  -55.6454 C.3       11 UNK         0.0169 
     16 S16        27.6123  -43.5930  -56.5756 S.3       11 UNK        -0.2669 
     17 C17        29.1731  -43.7467  -57.5137 C.3       11 UNK        -0.0850 
     18 CA         28.9458  -44.2780  -58.9489 C.3       10 UNK         0.0855 
     19 C          30.2482  -44.1651  -59.7896 C.2       10 UNK         0.5543 
     20 N          30.4795  -43.0197  -60.4162 N.am      10 UNK        -0.7343 
     21 O          31.0648  -45.0816  -59.8456 O.2       10 UNK        -0.5027 
     22 N          28.3905  -45.6367  -58.9200 N.am      10 UNK        -0.4495 
     23 C          27.9280  -46.3066  -59.9832 C.2       10 UNK         0.4903 
     24 O          27.8762  -45.8441  -61.1234 O.2       10 UNK        -0.4860 
     25 CA         27.4176  -47.7332  -59.7312 C.3       9 UNK         0.0227 
     26 CB         28.5435  -48.7544  -59.9596 C.3       9 UNK        -0.1964 
     27 N          26.8910  -47.8912  -58.3758 N.am      9 UNK        -0.4231 
     28 C          25.6545  -47.5558  -57.9856 C.2       9 UNK         0.5014 
     29 O          24.7971  -47.0969  -58.7435 O.2       9 UNK        -0.5270 
     30 CA         25.3316  -47.7907  -56.4951 C.3       8 UNK         0.0284 
     31 CB         23.8213  -47.7344  -56.1835 C.3       8 UNK        -0.1977 
     32 N          25.9280  -49.0292  -55.9751 N.am      8 UNK        -0.4342 
     33 C          25.7346  -50.2805  -56.4247 C.2       8 UNK         0.5039 
     34 O          24.9264  -50.5755  -57.3063 O.2       8 UNK        -0.5547 
     35 CA         26.6128  -51.3986  -55.8314 C.3       7 UNK         0.0281 
     36 CB         27.5884  -51.9240  -56.8989 C.3       7 UNK        -0.1963 
     37 N          27.3814  -50.9801  -54.6565 N.am      7 UNK        -0.4444 
     38 C          26.8840  -50.8838  -53.4170 C.2       7 UNK         0.5104 
     39 O          25.7288  -51.1854  -53.1160 O.2       7 UNK        -0.5100 
     40 CA         27.8252  -50.3214  -52.3365 C.3       6 UNK         0.0396 
     41 CB         28.7618  -51.4190  -51.8091 C.3       6 UNK        -0.1801 
     42 N          28.6186  -49.1679  -52.7773 N.am      6 UNK        -0.4747 
     43 C          28.1138  -48.0094  -53.2333 C.2       6 UNK         0.5012 
     44 O          26.9139  -47.8072  -53.4164 O.2       6 UNK        -0.5003 
     45 CA         29.1314  -46.9066  -53.5814 C.3       5 UNK         0.0782 
     46 C46        29.7557  -46.2828  -52.3037 C.3       11 UNK        -0.0868 
     47 S47        28.5273  -45.3719  -51.2966 S.3       11 UNK        -0.2515 
     48 C48        29.2845  -43.7288  -51.0775 C.3       11 UNK         0.0199 
     49 N          30.1372  -47.4618  -54.4920 N.am      5 UNK        -0.4607 
     50 C          29.9059  -47.7199  -55.7893 C.2       4 UNK         0.5031 
     51 O          28.8971  -47.3489  -56.3911 O.2       4 UNK        -0.5119 
     52 CA         30.9340  -48.5766  -56.5489 C.3       4 UNK         0.0263 
     53 CB         31.8283  -47.7135  -57.4495 C.3       4 UNK        -0.1967 
     54 N          31.7579  -49.4132  -55.6733 N.am      4 UNK        -0.4237 
     55 C          31.3011  -50.5177  -55.0635 C.2       3 UNK         0.4908 
     56 O          30.1556  -50.9434  -55.2013 O.2       3 UNK        -0.5102 
     57 CA         32.2523  -51.2492  -54.1007 C.3       3 UNK         0.0241 
     58 CB         33.0641  -52.3134  -54.8551 C.3       3 UNK        -0.1971 
     59 N          33.1641  -50.3610  -53.3768 N.am      3 UNK        -0.4139 
     60 C          32.7934  -49.3357  -52.5973 C.2       2 UNK         0.5016 
     61 O          31.6184  -49.0306  -52.3860 O.2       2 UNK        -0.5319 
     62 CA         33.9168  -48.4704  -51.9949 C.3       2 UNK         0.0286 
     63 CB         35.2900  -49.1778  -51.9486 C.3       2 UNK        -0.1963 
     64 N          34.0521  -47.1701  -52.6666 N.am      2 UNK        -0.4790 
     65 C          34.1877  -46.9359  -53.9841 C.2       1 UNK         0.5024 
     66 O          34.1299  -47.8111  -54.8497 O.2       1 UNK        -0.4888 
     67 H67        36.4631  -43.3575  -51.6574 H         1 UNK         0.0892 
     68 H68        37.5367  -44.6994  -51.2563 H         1 UNK         0.0892 
     69 H69        38.0081  -43.5294  -52.4918 H         1 UNK         0.0892 
     70 H70        34.7437  -43.9919  -52.9374 H         1 UNK         0.3107 
     71 H71        35.0376  -45.5236  -55.3302 H         1 UNK         0.0773 
     72 H72        32.5148  -45.3553  -55.4340 H         1 UNK         0.0680 
     73 H73        32.5106  -44.6612  -53.8446 H         1 UNK         0.0680 
     74 H74        33.4027  -42.0339  -53.3906 H         1 UNK         0.0650 
     75 H75        32.8864  -40.9475  -54.6569 H         1 UNK         0.0650 
     76 H76        31.7396  -42.9759  -51.9696 H         1 UNK         0.1397 
     77 H77        27.6148  -43.0640  -53.1360 H         1 UNK         0.1363 
     78 H78        30.5807  -41.5199  -55.8262 H         1 UNK         0.1355 
     79 H79        28.1738  -41.2488  -56.3307 H         1 UNK         0.0707 
     80 H80        26.9692  -41.7466  -55.1690 H         1 UNK         0.0707 
     81 H81        29.6514  -42.7676  -57.5594 H         1 UNK         0.1034 
     82 H82        29.8562  -44.3943  -56.9596 H         1 UNK         0.1034 
     83 H83        28.1959  -43.6444  -59.4274 H         1 UNK         0.0482 
     84 H84        29.8204  -42.2579  -60.3752 H         1 UNK         0.3460 
     85 H85        31.3256  -42.9202  -60.9551 H         1 UNK         0.3460 
     86 H86        28.4129  -46.1046  -58.0217 H         1 UNK         0.2989 
     87 H87        26.6198  -47.9403  -60.4477 H         1 UNK         0.0559 
     88 H88        29.3949  -48.5714  -59.3041 H         1 UNK         0.0848 
     89 H89        28.9096  -48.7040  -60.9859 H         1 UNK         0.0848 
     90 H90        28.1978  -49.7741  -59.7885 H         1 UNK         0.0848 
     91 H91        27.5539  -48.1526  -57.6541 H         1 UNK         0.3144 
     92 H92        25.8106  -46.9737  -55.9527 H         1 UNK         0.0727 
     93 H93        23.4023  -46.7648  -56.4552 H         1 UNK         0.0790 
     94 H94        23.6318  -47.8819  -55.1203 H         1 UNK         0.0790 
     95 H95        23.2656  -48.4947  -56.7331 H         1 UNK         0.0790 
     96 H96        26.5720  -48.8973  -55.2037 H         1 UNK         0.3215 
     97 H97        25.9492  -52.2169  -55.5435 H         1 UNK         0.0863 
     98 H98        28.1974  -52.7416  -56.5127 H         1 UNK         0.0808 
     99 H99        28.2629  -51.1410  -57.2483 H         1 UNK         0.0808 
    100 H100       27.0515  -52.3036  -57.7693 H         1 UNK         0.0808 
    101 H101       28.3711  -50.7855  -54.8048 H         1 UNK         0.3118 
    102 H102       27.2042  -49.9810  -51.5054 H         1 UNK         0.0546 
    103 H103       29.3938  -51.8229  -52.5995 H         1 UNK         0.0828 
    104 H104       28.1907  -52.2507  -51.3945 H         1 UNK         0.0828 
    105 H105       29.4109  -51.0444  -51.0173 H         1 UNK         0.0828 
    106 H106       29.6260  -49.2366  -52.6632 H         1 UNK         0.3005 
    107 H107       28.5964  -46.1145  -54.1128 H         1 UNK         0.1257 
    108 H108       30.5693  -45.6147  -52.5839 H         1 UNK         0.0775 
    109 H109       30.2087  -47.0432  -51.6674 H         1 UNK         0.0775 
    110 H110       28.5895  -43.0881  -50.5332 H         1 UNK         0.0840 
    111 H111       30.1668  -43.8317  -50.4438 H         1 UNK         0.0840 
    112 H112       30.9564  -47.8623  -54.0528 H         1 UNK         0.2987 
    113 H113       30.3622  -49.2411  -57.1998 H         1 UNK         0.0785 
    114 H114       32.5051  -47.0837  -56.8760 H         1 UNK         0.0798 
    115 H115       31.2283  -47.0589  -58.0820 H         1 UNK         0.0798 
    116 H116       32.4341  -48.3327  -58.1110 H         1 UNK         0.0798 
    117 H117       32.6993  -49.0868  -55.4739 H         1 UNK         0.3079 
    118 H118       31.6373  -51.7562  -53.3557 H         1 UNK         0.0794 
    119 H119       32.4052  -53.0027  -55.3855 H         1 UNK         0.0786 
    120 H120       33.6701  -52.9093  -54.1723 H         1 UNK         0.0786 
    121 H121       33.7303  -51.8656  -55.5937 H         1 UNK         0.0786 
    122 H122       34.1522  -50.5101  -53.5210 H         1 UNK         0.3032 
    123 H123       33.6150  -48.2666  -50.9660 H         1 UNK         0.1094 
    124 H124       36.0125  -48.5830  -51.3893 H         1 UNK         0.0794 
    125 H125       35.2222  -50.1454  -51.4489 H         1 UNK         0.0794 
    126 H126       35.7077  -49.3409  -52.9428 H         1 UNK         0.0794 
    127 H127       34.0879  -46.3700  -52.0509 H         1 UNK         0.3016 
@<TRIPOS>BOND
     1    1    2 1    
     2    1   67 1    
     3    1   68 1    
     4    1   69 1    
     5    2    3 2    
     6    2    4 am   BACKBONE|DICT|INTERRES
     7    4    5 1    
     8    4   70 1    
     9    5    6 1    
    10    5   65 1    
    11    5   71 1    
    12    6    7 1    
    13    6   72 1    
    14    6   73 1    
    15    7    8 1    
    16    8    9 1    
    17    8   74 1    
    18    8   75 1    
    19    9   10 ar   
    20    9   14 ar   
    21   10   11 ar   
    22   10   76 1    
    23   11   12 ar   
    24   11   48 1    
    25   12   13 ar   
    26   12   77 1    
    27   13   14 ar   
    28   13   15 1    
    29   14   78 1    
    30   15   16 1    
    31   15   79 1    
    32   15   80 1    
    33   16   17 1    
    34   17   18 1    
    35   17   81 1    
    36   17   82 1    
    37   18   19 1    
    38   18   22 1    
    39   18   83 1    
    40   19   20 am   BACKBONE|DICT|INTERRES
    41   19   21 2    
    42   20   84 1    
    43   20   85 1    
    44   22   23 am   BACKBONE|DICT|INTERRES
    45   22   86 1    
    46   23   24 2    
    47   23   25 1    
    48   25   26 1    
    49   25   27 1    
    50   25   87 1    
    51   26   88 1    
    52   26   89 1    
    53   26   90 1    
    54   27   28 am   BACKBONE|DICT|INTERRES
    55   27   91 1    
    56   28   29 2    
    57   28   30 1    
    58   30   31 1    
    59   30   32 1    
    60   30   92 1    
    61   31   93 1    
    62   31   94 1    
    63   31   95 1    
    64   32   33 am   BACKBONE|DICT|INTERRES
    65   32   96 1    
    66   33   34 2    
    67   33   35 1    
    68   35   36 1    
    69   35   37 1    
    70   35   97 1    
    71   36   98 1    
    72   36   99 1    
    73   36  100 1    
    74   37   38 am   BACKBONE|DICT|INTERRES
    75   37  101 1    
    76   38   39 2    
    77   38   40 1    
    78   40   41 1    
    79   40   42 1    
    80   40  102 1    
    81   41  103 1    
    82   41  104 1    
    83   41  105 1    
    84   42   43 am   BACKBONE|DICT|INTERRES
    85   42  106 1    
    86   43   44 2    
    87   43   45 1    
    88   45   46 1    
    89   45   49 1    
    90   45  107 1    
    91   46   47 1    
    92   46  108 1    
    93   46  109 1    
    94   47   48 1    
    95   48  110 1    
    96   48  111 1    
    97   49   50 am   BACKBONE|DICT|INTERRES
    98   49  112 1    
    99   50   51 2    
   100   50   52 1    
   101   52   53 1    
   102   52   54 1    
   103   52  113 1    
   104   53  114 1    
   105   53  115 1    
   106   53  116 1    
   107   54   55 am   BACKBONE|DICT|INTERRES
   108   54  117 1    
   109   55   56 2    
   110   55   57 1    
   111   57   58 1    
   112   57   59 1    
   113   57  118 1    
   114   58  119 1    
   115   58  120 1    
   116   58  121 1    
   117   59   60 am   BACKBONE|DICT|INTERRES
   118   59  122 1    
   119   60   61 2    
   120   60   62 1    
   121   62   63 1    
   122   62   64 1    
   123   62  123 1    
   124   63  124 1    
   125   63  125 1    
   126   63  126 1    
   127   64   65 am   BACKBONE|DICT|INTERRES
   128   64  127 1    
   129   65   66 2    
@<TRIPOS>SUBSTRUCTURE
     1 UNK         1 GROUP             0       ****    0 ROOT    
