@<TRIPOS>MOLECULE
3R134
127   129    1
SMALL
USER_CHARGES


@<TRIPOS>ATOM
      1 CA         30.8292  -48.0408  -49.6556 C.3       0 UNK        -0.1968 
      2 C          32.2584  -47.6211  -49.9653 C.2       0 UNK         0.4852 
      3 O          33.1727  -48.4188  -49.7588 O.2       0 UNK        -0.5359 
      4 N          32.4392  -46.3887  -50.4672 N.am      1 UNK        -0.4300 
      5 CA         33.6983  -45.6590  -50.7059 C.3       1 UNK         0.0863 
      6 C6         33.4736  -44.4202  -51.6071 C.3       11 UNK        -0.0953 
      7 S7         32.1176  -43.3338  -51.0521 S.3       11 UNK        -0.2369 
      8 C8         32.0426  -42.1399  -52.4273 C.3       11 UNK         0.0226 
      9 C9         31.5169  -42.7690  -53.7114 C.ar      11 UNK        -0.0699 
     10 C10        32.4053  -43.2787  -54.6627 C.ar      11 UNK        -0.0804 
     11 C11        31.9317  -43.8708  -55.8367 C.ar      11 UNK        -0.0871 
     12 C12        30.5547  -43.9162  -56.0761 C.ar      11 UNK        -0.1008 
     13 C13        29.6553  -43.4053  -55.1347 C.ar      11 UNK        -0.0735 
     14 C14        30.1421  -42.8372  -53.9530 C.ar      11 UNK        -0.0945 
     15 C15        28.1554  -43.4914  -55.3699 C.3       11 UNK         0.0169 
     16 S16        27.4862  -41.9318  -56.0259 S.3       11 UNK        -0.2669 
     17 C17        27.5605  -42.2042  -57.8319 C.3       11 UNK        -0.0850 
     18 CA         26.1454  -42.4544  -58.4341 C.3       10 UNK         0.0855 
     19 C          26.1121  -42.3584  -59.9913 C.2       10 UNK         0.5543 
     20 N          25.2167  -43.0622  -60.6728 N.am      10 UNK        -0.7343 
     21 O          26.8796  -41.6089  -60.5907 O.2       10 UNK        -0.5027 
     22 N          25.4970  -43.6475  -57.8547 N.am      10 UNK        -0.4495 
     23 C          25.8682  -44.9206  -58.0466 C.2       10 UNK         0.4903 
     24 O          26.7449  -45.2647  -58.8411 O.2       10 UNK        -0.4860 
     25 CA         25.1597  -45.9564  -57.1516 C.3       9 UNK         0.0227 
     26 CB         23.6232  -45.9277  -57.3117 C.3       9 UNK        -0.1964 
     27 N          25.6972  -47.3134  -57.3073 N.am      9 UNK        -0.4231 
     28 C          25.5549  -48.1564  -58.3421 C.2       9 UNK         0.5014 
     29 O          24.8510  -47.9298  -59.3281 O.2       9 UNK        -0.5270 
     30 CA         26.3256  -49.4925  -58.2841 C.3       8 UNK         0.0284 
     31 CB         27.4568  -49.4997  -59.3254 C.3       8 UNK        -0.1977 
     32 N          26.8872  -49.8103  -56.9665 N.am      8 UNK        -0.4342 
     33 C          26.1725  -50.1811  -55.8949 C.2       8 UNK         0.5039 
     34 O          24.9537  -50.3564  -55.9126 O.2       8 UNK        -0.5547 
     35 CA         26.9397  -50.3525  -54.5713 C.3       7 UNK         0.0281 
     36 CB         27.5382  -51.7645  -54.4677 C.3       7 UNK        -0.1963 
     37 N          27.9981  -49.3546  -54.3859 N.am      7 UNK        -0.4444 
     38 C          27.7925  -48.0345  -54.2635 C.2       7 UNK         0.5104 
     39 O          26.6787  -47.5111  -54.2531 O.2       7 UNK        -0.5100 
     40 CA         29.0410  -47.1400  -54.2063 C.3       6 UNK         0.0396 
     41 CB         29.6816  -47.1425  -52.8134 C.3       6 UNK        -0.1801 
     42 N          30.0306  -47.5284  -55.2090 N.am      6 UNK        -0.4747 
     43 C          29.8661  -47.3546  -56.5278 C.2       6 UNK         0.5012 
     44 O          28.8907  -46.7946  -57.0234 O.2       6 UNK        -0.5003 
     45 CA         30.9424  -47.9493  -57.4556 C.3       5 UNK         0.0782 
     46 C46        31.9755  -46.8989  -57.9285 C.3       11 UNK        -0.0868 
     47 S47        33.0912  -46.2627  -56.6289 S.3       11 UNK        -0.2515 
     48 C48        32.9174  -44.4583  -56.8356 C.3       11 UNK         0.0199 
     49 N          31.5572  -49.1628  -56.9032 N.am      5 UNK        -0.4607 
     50 C          30.8950  -50.3215  -56.7810 C.2       4 UNK         0.5031 
     51 O          29.7118  -50.4636  -57.0891 O.2       4 UNK        -0.5119 
     52 CA         31.6653  -51.5153  -56.2025 C.3       4 UNK         0.0263 
     53 CB         32.6887  -52.0513  -57.2167 C.3       4 UNK        -0.1967 
     54 N          32.3322  -51.2398  -54.9289 N.am      4 UNK        -0.4237 
     55 C          31.7384  -50.8482  -53.7946 C.2       3 UNK         0.4908 
     56 O          30.5587  -50.5054  -53.7177 O.2       3 UNK        -0.5102 
     57 CA         32.6020  -50.8644  -52.5202 C.3       3 UNK         0.0241 
     58 CB         33.2619  -52.2389  -52.2844 C.3       3 UNK        -0.1971 
     59 N          33.5882  -49.7816  -52.4540 N.am      3 UNK        -0.4139 
     60 C          34.5993  -49.5122  -53.2957 C.2       2 UNK         0.5016 
     61 O          34.8882  -50.2072  -54.2716 O.2       2 UNK        -0.5319 
     62 CA         35.4035  -48.2345  -53.0010 C.3       2 UNK         0.0286 
     63 CB         36.0607  -47.6358  -54.2585 C.3       2 UNK        -0.1963 
     64 N          34.5359  -47.2349  -52.3760 N.am      2 UNK        -0.4790 
     65 C          34.8437  -46.5092  -51.2951 C.2       1 UNK         0.5024 
     66 O          35.9512  -46.5068  -50.7558 O.2       1 UNK        -0.4888 
     67 H67        30.5430  -48.8941  -50.2695 H         1 UNK         0.0892 
     68 H68        30.7478  -48.3359  -48.6098 H         1 UNK         0.0892 
     69 H69        30.1173  -47.2349  -49.8310 H         1 UNK         0.0892 
     70 H70        31.6217  -45.8108  -50.6047 H         1 UNK         0.3107 
     71 H71        34.0338  -45.3083  -49.7280 H         1 UNK         0.0773 
     72 H72        33.2450  -44.7504  -52.6201 H         1 UNK         0.0680 
     73 H73        34.3842  -43.8211  -51.6722 H         1 UNK         0.0680 
     74 H74        33.0326  -41.7108  -52.5894 H         1 UNK         0.0650 
     75 H75        31.3970  -41.3104  -52.1353 H         1 UNK         0.0650 
     76 H76        33.4700  -43.2303  -54.4791 H         1 UNK         0.1397 
     77 H77        30.1808  -44.3668  -56.9849 H         1 UNK         0.1363 
     78 H78        29.4490  -42.4470  -53.2202 H         1 UNK         0.1355 
     79 H79        27.9185  -44.3199  -56.0382 H         1 UNK         0.0707 
     80 H80        27.6540  -43.7159  -54.4272 H         1 UNK         0.0707 
     81 H81        28.2363  -43.0272  -58.0694 H         1 UNK         0.1034 
     82 H82        28.0129  -41.3119  -58.2682 H         1 UNK         0.1034 
     83 H83        25.5204  -41.6183  -58.1181 H         1 UNK         0.0482 
     84 H84        24.5865  -43.6833  -60.1912 H         1 UNK         0.3460 
     85 H85        25.1893  -42.9899  -61.6775 H         1 UNK         0.3460 
     86 H86        24.7600  -43.4536  -57.1926 H         1 UNK         0.2989 
     87 H87        25.3898  -45.6792  -56.1217 H         1 UNK         0.0559 
     88 H88        23.2045  -44.9830  -56.9645 H         1 UNK         0.0848 
     89 H89        23.1499  -46.7178  -56.7285 H         1 UNK         0.0848 
     90 H90        23.3182  -46.0514  -58.3512 H         1 UNK         0.0848 
     91 H91        26.3343  -47.5966  -56.5739 H         1 UNK         0.3144 
     92 H92        25.6196  -50.2834  -58.5460 H         1 UNK         0.0727 
     93 H93        27.9921  -50.4494  -59.3287 H         1 UNK         0.0790 
     94 H94        28.1776  -48.7046  -59.1349 H         1 UNK         0.0790 
     95 H95        27.0632  -49.3462  -60.3311 H         1 UNK         0.0790 
     96 H96        27.9010  -49.7870  -56.8850 H         1 UNK         0.3215 
     97 H97        26.2222  -50.2264  -53.7576 H         1 UNK         0.0863 
     98 H98        28.0117  -51.9235  -53.4987 H         1 UNK         0.0808 
     99 H99        28.2891  -51.9429  -55.2381 H         1 UNK         0.0808 
    100 H100       26.7655  -52.5260  -54.5807 H         1 UNK         0.0808 
    101 H101       28.9520  -49.7069  -54.3382 H         1 UNK         0.3118 
    102 H102       28.7247  -46.1186  -54.4205 H         1 UNK         0.0546 
    103 H103       30.0650  -48.1270  -52.5476 H         1 UNK         0.0828 
    104 H104       28.9545  -46.8541  -52.0534 H         1 UNK         0.0828 
    105 H105       30.5054  -46.4304  -52.7624 H         1 UNK         0.0828 
    106 H106       30.8466  -48.0287  -54.8895 H         1 UNK         0.3005 
    107 H107       30.4046  -48.2609  -58.3540 H         1 UNK         0.1257 
    108 H108       32.6014  -47.3373  -58.7071 H         1 UNK         0.0775 
    109 H109       31.4552  -46.0715  -58.4138 H         1 UNK         0.0775 
    110 H110       33.9001  -44.0046  -56.6977 H         1 UNK         0.0840 
    111 H111       32.6211  -44.2060  -57.8545 H         1 UNK         0.0840 
    112 H112       32.5246  -49.1018  -56.6194 H         1 UNK         0.2987 
    113 H113       30.9353  -52.3055  -56.0148 H         1 UNK         0.0785 
    114 H114       33.1418  -52.9795  -56.8680 H         1 UNK         0.0798 
    115 H115       33.4915  -51.3362  -57.4006 H         1 UNK         0.0798 
    116 H116       32.2144  -52.2651  -58.1757 H         1 UNK         0.0798 
    117 H117       33.3390  -51.3640  -54.8961 H         1 UNK         0.3079 
    118 H118       31.9189  -50.6922  -51.6868 H         1 UNK         0.0794 
    119 H119       32.5198  -53.0380  -52.3131 H         1 UNK         0.0786 
    120 H120       33.7410  -52.2796  -51.3061 H         1 UNK         0.0786 
    121 H121       34.0200  -52.4722  -53.0325 H         1 UNK         0.0786 
    122 H122       33.4919  -49.1723  -51.6469 H         1 UNK         0.3032 
    123 H123       36.1939  -48.5299  -52.3070 H         1 UNK         0.1094 
    124 H124       35.3200  -47.3812  -55.0159 H         1 UNK         0.0794 
    125 H125       36.6216  -46.7319  -54.0206 H         1 UNK         0.0794 
    126 H126       36.7605  -48.3405  -54.7095 H         1 UNK         0.0794 
    127 H127       33.6011  -47.1600  -52.7529 H         1 UNK         0.3016 
@<TRIPOS>BOND
     1    1    2 1    
     2    1   67 1    
     3    1   68 1    
     4    1   69 1    
     5    2    3 2    
     6    2    4 am   BACKBONE|DICT|INTERRES
     7    4    5 1    
     8    4   70 1    
     9    5    6 1    
    10    5   65 1    
    11    5   71 1    
    12    6    7 1    
    13    6   72 1    
    14    6   73 1    
    15    7    8 1    
    16    8    9 1    
    17    8   74 1    
    18    8   75 1    
    19    9   10 ar   
    20    9   14 ar   
    21   10   11 ar   
    22   10   76 1    
    23   11   12 ar   
    24   11   48 1    
    25   12   13 ar   
    26   12   77 1    
    27   13   14 ar   
    28   13   15 1    
    29   14   78 1    
    30   15   16 1    
    31   15   79 1    
    32   15   80 1    
    33   16   17 1    
    34   17   18 1    
    35   17   81 1    
    36   17   82 1    
    37   18   19 1    
    38   18   22 1    
    39   18   83 1    
    40   19   20 am   BACKBONE|DICT|INTERRES
    41   19   21 2    
    42   20   84 1    
    43   20   85 1    
    44   22   23 am   BACKBONE|DICT|INTERRES
    45   22   86 1    
    46   23   24 2    
    47   23   25 1    
    48   25   26 1    
    49   25   27 1    
    50   25   87 1    
    51   26   88 1    
    52   26   89 1    
    53   26   90 1    
    54   27   28 am   BACKBONE|DICT|INTERRES
    55   27   91 1    
    56   28   29 2    
    57   28   30 1    
    58   30   31 1    
    59   30   32 1    
    60   30   92 1    
    61   31   93 1    
    62   31   94 1    
    63   31   95 1    
    64   32   33 am   BACKBONE|DICT|INTERRES
    65   32   96 1    
    66   33   34 2    
    67   33   35 1    
    68   35   36 1    
    69   35   37 1    
    70   35   97 1    
    71   36   98 1    
    72   36   99 1    
    73   36  100 1    
    74   37   38 am   BACKBONE|DICT|INTERRES
    75   37  101 1    
    76   38   39 2    
    77   38   40 1    
    78   40   41 1    
    79   40   42 1    
    80   40  102 1    
    81   41  103 1    
    82   41  104 1    
    83   41  105 1    
    84   42   43 am   BACKBONE|DICT|INTERRES
    85   42  106 1    
    86   43   44 2    
    87   43   45 1    
    88   45   46 1    
    89   45   49 1    
    90   45  107 1    
    91   46   47 1    
    92   46  108 1    
    93   46  109 1    
    94   47   48 1    
    95   48  110 1    
    96   48  111 1    
    97   49   50 am   BACKBONE|DICT|INTERRES
    98   49  112 1    
    99   50   51 2    
   100   50   52 1    
   101   52   53 1    
   102   52   54 1    
   103   52  113 1    
   104   53  114 1    
   105   53  115 1    
   106   53  116 1    
   107   54   55 am   BACKBONE|DICT|INTERRES
   108   54  117 1    
   109   55   56 2    
   110   55   57 1    
   111   57   58 1    
   112   57   59 1    
   113   57  118 1    
   114   58  119 1    
   115   58  120 1    
   116   58  121 1    
   117   59   60 am   BACKBONE|DICT|INTERRES
   118   59  122 1    
   119   60   61 2    
   120   60   62 1    
   121   62   63 1    
   122   62   64 1    
   123   62  123 1    
   124   63  124 1    
   125   63  125 1    
   126   63  126 1    
   127   64   65 am   BACKBONE|DICT|INTERRES
   128   64  127 1    
   129   65   66 2    
@<TRIPOS>SUBSTRUCTURE
     1 UNK         1 GROUP             0       ****    0 ROOT    
