@<TRIPOS>MOLECULE
3R134
127   129    1
SMALL
USER_CHARGES


@<TRIPOS>ATOM
      1 CA         32.4682  -46.7486  -48.8710 C.3       0 UNK        -0.1968 
      2 C          33.4958  -45.9244  -49.6325 C.2       0 UNK         0.4852 
      3 O          33.7425  -44.7714  -49.2745 O.2       0 UNK        -0.5359 
      4 N          34.0937  -46.5078  -50.6743 N.am      1 UNK        -0.4300 
      5 CA         35.0840  -45.8779  -51.5458 C.3       1 UNK         0.0863 
      6 C6         34.4607  -44.8976  -52.5818 C.3       11 UNK        -0.0953 
      7 S7         33.0418  -45.5732  -53.5185 S.3       11 UNK        -0.2369 
      8 C8         31.7699  -44.3270  -53.1428 C.3       11 UNK         0.0226 
      9 C9         30.4735  -44.6212  -53.8800 C.ar      11 UNK        -0.0699 
     10 C10        29.3474  -45.0749  -53.1846 C.ar      11 UNK        -0.0804 
     11 C11        28.1674  -45.3809  -53.8711 C.ar      11 UNK        -0.0871 
     12 C12        28.1134  -45.2012  -55.2556 C.ar      11 UNK        -0.1008 
     13 C13        29.2244  -44.7283  -55.9569 C.ar      11 UNK        -0.0735 
     14 C14        30.4021  -44.4373  -55.2645 C.ar      11 UNK        -0.0945 
     15 C15        29.1443  -44.5467  -57.4623 C.3       11 UNK         0.0169 
     16 S16        28.6296  -42.8576  -57.8934 S.3       11 UNK        -0.2669 
     17 C17        27.8943  -43.1294  -59.5436 C.3       11 UNK        -0.0850 
     18 CA         26.3418  -43.0916  -59.5216 C.3       10 UNK         0.0855 
     19 C          25.7494  -43.2359  -60.9552 C.2       10 UNK         0.5543 
     20 N          24.8665  -44.1899  -61.2293 N.am      10 UNK        -0.7343 
     21 O          26.0954  -42.4568  -61.8397 O.2       10 UNK        -0.5027 
     22 N          25.7767  -44.0323  -58.5395 N.am      10 UNK        -0.4495 
     23 C          24.6033  -43.8691  -57.9175 C.2       10 UNK         0.4903 
     24 O          23.8869  -42.8763  -58.0582 O.2       10 UNK        -0.4860 
     25 CA         24.1590  -45.0133  -56.9826 C.3       9 UNK         0.0227 
     26 CB         22.6450  -44.9806  -56.6853 C.3       9 UNK        -0.1964 
     27 N          24.5559  -46.3507  -57.4460 N.am      9 UNK        -0.4231 
     28 C          24.2616  -46.9350  -58.6159 C.2       9 UNK         0.5014 
     29 O          23.6752  -46.3715  -59.5424 O.2       9 UNK        -0.5270 
     30 CA         24.7354  -48.3922  -58.7780 C.3       8 UNK         0.0284 
     31 CB         23.8791  -49.1668  -59.7971 C.3       8 UNK        -0.1977 
     32 N          26.1422  -48.4819  -59.1757 N.am      8 UNK        -0.4342 
     33 C          27.1885  -48.1379  -58.4162 C.2       8 UNK         0.5039 
     34 O          27.0888  -47.6789  -57.2738 O.2       8 UNK        -0.5547 
     35 CA         28.5771  -48.3355  -59.0349 C.3       7 UNK         0.0281 
     36 CB         28.8176  -47.3869  -60.2262 C.3       7 UNK        -0.1963 
     37 N          29.5684  -48.1067  -57.9899 N.am      7 UNK        -0.4444 
     38 C          30.8379  -48.5233  -57.9963 C.2       7 UNK         0.5104 
     39 O          31.3571  -49.1213  -58.9395 O.2       7 UNK        -0.5100 
     40 CA         31.6790  -48.2288  -56.7402 C.3       6 UNK         0.0396 
     41 CB         32.5976  -47.0209  -56.9820 C.3       6 UNK        -0.1801 
     42 N          30.8842  -48.0083  -55.5243 N.am      6 UNK        -0.4747 
     43 C          30.2420  -48.9844  -54.8671 C.2       6 UNK         0.5012 
     44 O          30.2149  -50.1588  -55.2439 O.2       6 UNK        -0.5003 
     45 CA         29.5372  -48.6105  -53.5563 C.3       5 UNK         0.0782 
     46 C46        28.0011  -48.4995  -53.7416 C.3       11 UNK        -0.0868 
     47 S47        27.2280  -47.5598  -52.3822 S.3       11 UNK        -0.2515 
     48 C48        26.9478  -45.9184  -53.1308 C.3       11 UNK         0.0199 
     49 N          29.9327  -49.6423  -52.6048 N.am      5 UNK        -0.4607 
     50 C          30.2267  -49.4559  -51.3141 C.2       4 UNK         0.5031 
     51 O          29.9887  -48.4277  -50.6820 O.2       4 UNK        -0.5119 
     52 CA         31.0178  -50.5954  -50.6443 C.3       4 UNK         0.0263 
     53 CB         30.0999  -51.7800  -50.3011 C.3       4 UNK        -0.1967 
     54 N          32.1364  -51.0524  -51.4828 N.am      4 UNK        -0.4237 
     55 C          33.1391  -50.2583  -51.8873 C.2       3 UNK         0.4908 
     56 O          33.2824  -49.0960  -51.4924 O.2       3 UNK        -0.5102 
     57 CA         34.1294  -50.8263  -52.9182 C.3       3 UNK         0.0241 
     58 CB         33.4448  -51.5994  -54.0625 C.3       3 UNK        -0.1971 
     59 N          34.8544  -49.6869  -53.4633 N.am      3 UNK        -0.4139 
     60 C          36.1222  -49.6448  -53.8769 C.2       2 UNK         0.5016 
     61 O          36.8410  -50.6358  -54.0114 O.2       2 UNK        -0.5319 
     62 CA         36.6861  -48.2393  -54.1684 C.3       2 UNK         0.0286 
     63 CB         36.6497  -47.9501  -55.6779 C.3       2 UNK        -0.1963 
     64 N          35.9718  -47.1671  -53.4574 N.am      2 UNK        -0.4790 
     65 C          35.9798  -46.9870  -52.1277 C.2       1 UNK         0.5024 
     66 O          36.6549  -47.6733  -51.3583 O.2       1 UNK        -0.4888 
     67 H67        31.4736  -46.3243  -49.0057 H         1 UNK         0.0892 
     68 H68        32.6995  -46.7527  -47.8064 H         1 UNK         0.0892 
     69 H69        32.4418  -47.7822  -49.2157 H         1 UNK         0.0892 
     70 H70        33.8494  -47.4672  -50.9222 H         1 UNK         0.3107 
     71 H71        35.7541  -45.2902  -50.9143 H         1 UNK         0.0773 
     72 H72        34.1314  -44.0035  -52.0506 H         1 UNK         0.0680 
     73 H73        35.2135  -44.5394  -53.2862 H         1 UNK         0.0680 
     74 H74        32.1326  -43.3393  -53.4312 H         1 UNK         0.0650 
     75 H75        31.6051  -44.2987  -52.0643 H         1 UNK         0.0650 
     76 H76        29.3944  -45.2205  -52.1135 H         1 UNK         0.1397 
     77 H77        27.2053  -45.4349  -55.7933 H         1 UNK         0.1363 
     78 H78        31.2669  -44.0731  -55.8024 H         1 UNK         0.1355 
     79 H79        30.1048  -44.7663  -57.9305 H         1 UNK         0.0707 
     80 H80        28.4307  -45.2626  -57.8688 H         1 UNK         0.0707 
     81 H81        28.2542  -44.0669  -59.9677 H         1 UNK         0.1034 
     82 H82        28.2772  -42.3457  -60.2003 H         1 UNK         0.1034 
     83 H83        26.0647  -42.0852  -59.2014 H         1 UNK         0.0482 
     84 H84        24.4958  -44.2582  -62.1634 H         1 UNK         0.3460 
     85 H85        24.5430  -44.8339  -60.5153 H         1 UNK         0.3460 
     86 H86        26.2902  -44.8853  -58.3831 H         1 UNK         0.2989 
     87 H87        24.6830  -44.8504  -56.0398 H         1 UNK         0.0559 
     88 H88        22.3548  -44.0372  -56.2210 H         1 UNK         0.0848 
     89 H89        22.3573  -45.7774  -55.9995 H         1 UNK         0.0848 
     90 H90        22.0537  -45.0912  -57.5951 H         1 UNK         0.0848 
     91 H91        25.1665  -46.8742  -56.8271 H         1 UNK         0.3144 
     92 H92        24.6232  -48.8874  -57.8108 H         1 UNK         0.0727 
     93 H93        24.1566  -50.2206  -59.8301 H         1 UNK         0.0790 
     94 H94        23.9796  -48.7610  -60.8047 H         1 UNK         0.0790 
     95 H95        22.8218  -49.1203  -59.5322 H         1 UNK         0.0790 
     96 H96        26.3173  -48.8248  -60.1094 H         1 UNK         0.3215 
     97 H97        28.6513  -49.3724  -59.3698 H         1 UNK         0.0863 
     98 H98        28.0750  -47.5335  -61.0111 H         1 UNK         0.0808 
     99 H99        29.7941  -47.5586  -60.6791 H         1 UNK         0.0808 
    100 H100       28.7734  -46.3419  -59.9269 H         1 UNK         0.0808 
    101 H101       29.1843  -47.6843  -57.1527 H         1 UNK         0.3118 
    102 H102       32.3168  -49.0993  -56.5710 H         1 UNK         0.0546 
    103 H103       33.2888  -46.8760  -56.1532 H         1 UNK         0.0828 
    104 H104       32.0316  -46.1000  -57.1168 H         1 UNK         0.0828 
    105 H105       33.2025  -47.1638  -57.8786 H         1 UNK         0.0828 
    106 H106       30.8642  -47.0646  -55.1599 H         1 UNK         0.3005 
    107 H107       29.9458  -47.6572  -53.2198 H         1 UNK         0.1257 
    108 H108       27.5467  -49.4907  -53.7875 H         1 UNK         0.0775 
    109 H109       27.7471  -48.0165  -54.6863 H         1 UNK         0.0775 
    110 H110       26.0887  -45.9858  -53.8002 H         1 UNK         0.0840 
    111 H111       26.6662  -45.2153  -52.3459 H         1 UNK         0.0840 
    112 H112       30.1922  -50.5155  -53.0446 H         1 UNK         0.2987 
    113 H113       31.4361  -50.2066  -49.7134 H         1 UNK         0.0785 
    114 H114       30.6381  -52.5519  -49.7507 H         1 UNK         0.0798 
    115 H115       29.6742  -52.2390  -51.1942 H         1 UNK         0.0798 
    116 H116       29.2682  -51.4571  -49.6732 H         1 UNK         0.0798 
    117 H117       32.0920  -51.9999  -51.8289 H         1 UNK         0.3079 
    118 H118       34.8235  -51.4828  -52.3897 H         1 UNK         0.0794 
    119 H119       32.7028  -50.9863  -54.5741 H         1 UNK         0.0786 
    120 H120       32.9434  -52.4971  -53.7005 H         1 UNK         0.0786 
    121 H121       34.1726  -51.9231  -54.8069 H         1 UNK         0.0786 
    122 H122       34.3843  -48.8037  -53.3119 H         1 UNK         0.3032 
    123 H123       37.7273  -48.2324  -53.8379 H         1 UNK         0.1094 
    124 H124       35.6299  -47.9443  -56.0645 H         1 UNK         0.0794 
    125 H125       37.1038  -46.9865  -55.9096 H         1 UNK         0.0794 
    126 H126       37.2033  -48.7089  -56.2330 H         1 UNK         0.0794 
    127 H127       35.3775  -46.5653  -54.0121 H         1 UNK         0.3016 
@<TRIPOS>BOND
     1    1    2 1    
     2    1   67 1    
     3    1   68 1    
     4    1   69 1    
     5    2    3 2    
     6    2    4 am   BACKBONE|DICT|INTERRES
     7    4    5 1    
     8    4   70 1    
     9    5    6 1    
    10    5   65 1    
    11    5   71 1    
    12    6    7 1    
    13    6   72 1    
    14    6   73 1    
    15    7    8 1    
    16    8    9 1    
    17    8   74 1    
    18    8   75 1    
    19    9   10 ar   
    20    9   14 ar   
    21   10   11 ar   
    22   10   76 1    
    23   11   12 ar   
    24   11   48 1    
    25   12   13 ar   
    26   12   77 1    
    27   13   14 ar   
    28   13   15 1    
    29   14   78 1    
    30   15   16 1    
    31   15   79 1    
    32   15   80 1    
    33   16   17 1    
    34   17   18 1    
    35   17   81 1    
    36   17   82 1    
    37   18   19 1    
    38   18   22 1    
    39   18   83 1    
    40   19   20 am   BACKBONE|DICT|INTERRES
    41   19   21 2    
    42   20   84 1    
    43   20   85 1    
    44   22   23 am   BACKBONE|DICT|INTERRES
    45   22   86 1    
    46   23   24 2    
    47   23   25 1    
    48   25   26 1    
    49   25   27 1    
    50   25   87 1    
    51   26   88 1    
    52   26   89 1    
    53   26   90 1    
    54   27   28 am   BACKBONE|DICT|INTERRES
    55   27   91 1    
    56   28   29 2    
    57   28   30 1    
    58   30   31 1    
    59   30   32 1    
    60   30   92 1    
    61   31   93 1    
    62   31   94 1    
    63   31   95 1    
    64   32   33 am   BACKBONE|DICT|INTERRES
    65   32   96 1    
    66   33   34 2    
    67   33   35 1    
    68   35   36 1    
    69   35   37 1    
    70   35   97 1    
    71   36   98 1    
    72   36   99 1    
    73   36  100 1    
    74   37   38 am   BACKBONE|DICT|INTERRES
    75   37  101 1    
    76   38   39 2    
    77   38   40 1    
    78   40   41 1    
    79   40   42 1    
    80   40  102 1    
    81   41  103 1    
    82   41  104 1    
    83   41  105 1    
    84   42   43 am   BACKBONE|DICT|INTERRES
    85   42  106 1    
    86   43   44 2    
    87   43   45 1    
    88   45   46 1    
    89   45   49 1    
    90   45  107 1    
    91   46   47 1    
    92   46  108 1    
    93   46  109 1    
    94   47   48 1    
    95   48  110 1    
    96   48  111 1    
    97   49   50 am   BACKBONE|DICT|INTERRES
    98   49  112 1    
    99   50   51 2    
   100   50   52 1    
   101   52   53 1    
   102   52   54 1    
   103   52  113 1    
   104   53  114 1    
   105   53  115 1    
   106   53  116 1    
   107   54   55 am   BACKBONE|DICT|INTERRES
   108   54  117 1    
   109   55   56 2    
   110   55   57 1    
   111   57   58 1    
   112   57   59 1    
   113   57  118 1    
   114   58  119 1    
   115   58  120 1    
   116   58  121 1    
   117   59   60 am   BACKBONE|DICT|INTERRES
   118   59  122 1    
   119   60   61 2    
   120   60   62 1    
   121   62   63 1    
   122   62   64 1    
   123   62  123 1    
   124   63  124 1    
   125   63  125 1    
   126   63  126 1    
   127   64   65 am   BACKBONE|DICT|INTERRES
   128   64  127 1    
   129   65   66 2    
@<TRIPOS>SUBSTRUCTURE
     1 UNK         1 GROUP             0       ****    0 ROOT    
