@<TRIPOS>MOLECULE
3R134
127   129    1
SMALL
USER_CHARGES


@<TRIPOS>ATOM
      1 CA         30.5234  -43.8927  -49.1498 C.3       0 UNK        -0.1968 
      2 C          31.7880  -44.7238  -48.9908 C.2       0 UNK         0.4852 
      3 O          32.0926  -45.1698  -47.8838 O.2       0 UNK        -0.5359 
      4 N          32.5244  -44.9357  -50.0897 N.am      1 UNK        -0.4300 
      5 CA         33.7605  -45.7278  -50.1369 C.3       1 UNK         0.0863 
      6 C6         34.6208  -45.3790  -51.3800 C.3       11 UNK        -0.0953 
      7 S7         33.7519  -45.5768  -52.9767 S.3       11 UNK        -0.2369 
      8 C8         33.5489  -43.8386  -53.4747 C.3       11 UNK         0.0226 
      9 C9         32.7885  -43.7053  -54.7865 C.ar      11 UNK        -0.0699 
     10 C10        33.4298  -43.9898  -55.9955 C.ar      11 UNK        -0.0804 
     11 C11        32.7611  -43.8204  -57.2118 C.ar      11 UNK        -0.0871 
     12 C12        31.4454  -43.3510  -57.2126 C.ar      11 UNK        -0.1008 
     13 C13        30.7866  -43.0737  -56.0113 C.ar      11 UNK        -0.0735 
     14 C14        31.4623  -43.2578  -54.7996 C.ar      11 UNK        -0.0945 
     15 C15        29.3641  -42.5304  -56.0321 C.3       11 UNK         0.0169 
     16 S16        28.1965  -43.6852  -56.8167 S.3       11 UNK        -0.2669 
     17 C17        26.6677  -42.6900  -56.7444 C.3       11 UNK        -0.0850 
     18 CA         25.4271  -43.3957  -57.3549 C.3       10 UNK         0.0855 
     19 C          25.4387  -43.4162  -58.9140 C.2       10 UNK         0.5543 
     20 N          25.1778  -44.5390  -59.5743 N.am      10 UNK        -0.7343 
     21 O          25.6674  -42.3840  -59.5399 O.2       10 UNK        -0.5027 
     22 N          25.2028  -44.7044  -56.7264 N.am      10 UNK        -0.4495 
     23 C          24.0162  -45.2965  -56.5616 C.2       10 UNK         0.4903 
     24 O          22.9376  -44.7751  -56.8493 O.2       10 UNK        -0.4860 
     25 CA         24.0708  -46.7254  -55.9949 C.3       9 UNK         0.0227 
     26 CB         22.6922  -47.4188  -55.9514 C.3       9 UNK        -0.1964 
     27 N          25.0611  -47.5559  -56.6928 N.am      9 UNK        -0.4231 
     28 C          25.0584  -47.9191  -57.9873 C.2       9 UNK         0.5014 
     29 O          24.2050  -47.5474  -58.7938 O.2       9 UNK        -0.5270 
     30 CA         26.2017  -48.8257  -58.4960 C.3       8 UNK         0.0284 
     31 CB         27.0030  -48.1132  -59.5987 C.3       8 UNK        -0.1977 
     32 N          27.1248  -49.2632  -57.4457 N.am      8 UNK        -0.4342 
     33 C          26.8393  -50.1518  -56.4825 C.2       8 UNK         0.5039 
     34 O          25.8051  -50.8199  -56.4624 O.2       8 UNK        -0.5547 
     35 CA         27.8387  -50.2880  -55.3151 C.3       7 UNK         0.0281 
     36 CB         28.5677  -51.6386  -55.3844 C.3       7 UNK        -0.1963 
     37 N          28.8248  -49.2032  -55.2217 N.am      7 UNK        -0.4444 
     38 C          28.5455  -47.9042  -55.0369 C.2       7 UNK         0.5104 
     39 O          27.4024  -47.4626  -54.9104 O.2       7 UNK        -0.5100 
     40 CA         29.7353  -46.9320  -55.0479 C.3       6 UNK         0.0396 
     41 CB         30.2890  -46.7480  -53.6282 C.3       6 UNK        -0.1801 
     42 N          30.8059  -47.3504  -55.9615 N.am      6 UNK        -0.4747 
     43 C          30.7069  -47.3293  -57.3012 C.2       6 UNK         0.5012 
     44 O          29.7030  -46.9440  -57.8992 O.2       6 UNK        -0.5003 
     45 CA         31.8943  -47.9025  -58.1088 C.3       5 UNK         0.0782 
     46 C46        33.0747  -46.9097  -58.2371 C.3       11 UNK        -0.0868 
     47 S47        32.7273  -45.5457  -59.3959 S.3       11 UNK        -0.2515 
     48 C48        33.4642  -44.1235  -58.5275 C.3       11 UNK         0.0199 
     49 N          32.3515  -49.1786  -57.5583 N.am      5 UNK        -0.4607 
     50 C          31.6563  -50.3232  -57.5846 C.2       4 UNK         0.5031 
     51 O          30.5806  -50.4573  -58.1665 O.2       4 UNK        -0.5119 
     52 CA         32.2515  -51.5132  -56.8040 C.3       4 UNK         0.0263 
     53 CB         33.0599  -52.4194  -57.7460 C.3       4 UNK        -0.1967 
     54 N          33.0925  -51.1218  -55.6636 N.am      4 UNK        -0.4237 
     55 C          32.6810  -50.3734  -54.6303 C.2       3 UNK         0.4908 
     56 O          31.5307  -49.9421  -54.5204 O.2       3 UNK        -0.5102 
     57 CA         33.7552  -49.9783  -53.6035 C.3       3 UNK         0.0241 
     58 CB         34.7637  -48.9975  -54.2288 C.3       3 UNK        -0.1971 
     59 N          33.1554  -49.3374  -52.4342 N.am      3 UNK        -0.4139 
     60 C          32.5314  -49.9755  -51.4355 C.2       2 UNK         0.5016 
     61 O          32.4827  -51.2034  -51.3380 O.2       2 UNK        -0.5319 
     62 CA         31.8257  -49.0956  -50.3803 C.3       2 UNK         0.0286 
     63 CB         31.8600  -49.7211  -48.9692 C.3       2 UNK        -0.1963 
     64 N          32.2909  -47.6990  -50.3498 N.am      2 UNK        -0.4790 
     65 C          33.5164  -47.2499  -50.0277 C.2       1 UNK         0.5024 
     66 O          34.4448  -47.9797  -49.6783 O.2       1 UNK        -0.4888 
     67 H67        30.5755  -43.0066  -48.5179 H         1 UNK         0.0892 
     68 H68        29.6521  -44.4743  -48.8497 H         1 UNK         0.0892 
     69 H69        30.3748  -43.5663  -50.1790 H         1 UNK         0.0892 
     70 H70        32.2290  -44.5442  -50.9720 H         1 UNK         0.3107 
     71 H71        34.3503  -45.4585  -49.2578 H         1 UNK         0.0773 
     72 H72        34.9786  -44.3520  -51.2921 H         1 UNK         0.0680 
     73 H73        35.5237  -45.9924  -51.4059 H         1 UNK         0.0680 
     74 H74        34.5330  -43.3795  -53.5801 H         1 UNK         0.0650 
     75 H75        33.0379  -43.2909  -52.6817 H         1 UNK         0.0650 
     76 H76        34.4538  -44.3377  -55.9849 H         1 UNK         0.1397 
     77 H77        30.9275  -43.2099  -58.1517 H         1 UNK         0.1363 
     78 H78        30.9635  -43.0313  -53.8674 H         1 UNK         0.1355 
     79 H79        29.3563  -41.5845  -56.5758 H         1 UNK         0.0707 
     80 H80        29.0191  -42.3118  -55.0201 H         1 UNK         0.0707 
     81 H81        26.8423  -41.7261  -57.2265 H         1 UNK         0.1034 
     82 H82        26.4664  -42.4594  -55.6970 H         1 UNK         0.1034 
     83 H83        24.5710  -42.7674  -57.1018 H         1 UNK         0.0482 
     84 H84        24.9312  -45.3860  -59.0826 H         1 UNK         0.3460 
     85 H85        25.1823  -44.5267  -60.5817 H         1 UNK         0.3460 
     86 H86        26.0408  -45.2129  -56.4805 H         1 UNK         0.2989 
     87 H87        24.4234  -46.6335  -54.9665 H         1 UNK         0.0559 
     88 H88        22.7656  -48.4205  -55.5282 H         1 UNK         0.0848 
     89 H89        22.2477  -47.5056  -56.9433 H         1 UNK         0.0848 
     90 H90        21.9927  -46.8560  -55.3321 H         1 UNK         0.0848 
     91 H91        25.8565  -47.8339  -56.1251 H         1 UNK         0.3144 
     92 H92        25.7398  -49.7146  -58.9304 H         1 UNK         0.0727 
     93 H93        27.8269  -48.7305  -59.9580 H         1 UNK         0.0790 
     94 H94        27.4187  -47.1681  -59.2471 H         1 UNK         0.0790 
     95 H95        26.3699  -47.8870  -60.4577 H         1 UNK         0.0790 
     96 H96        28.0073  -48.7710  -57.3911 H         1 UNK         0.3215 
     97 H97        27.2548  -50.2655  -54.3927 H         1 UNK         0.0863 
     98 H98        29.2913  -51.7484  -54.5763 H         1 UNK         0.0808 
     99 H99        29.0923  -51.7600  -56.3312 H         1 UNK         0.0808 
    100 H100       27.8606  -52.4650  -55.3012 H         1 UNK         0.0808 
    101 H101       29.8053  -49.4741  -55.2331 H         1 UNK         0.3118 
    102 H102       29.3637  -45.9639  -55.3862 H         1 UNK         0.0546 
    103 H103       30.7768  -47.6499  -53.2594 H         1 UNK         0.0828 
    104 H104       29.4922  -46.4951  -52.9273 H         1 UNK         0.0828 
    105 H105       31.0066  -45.9316  -53.5990 H         1 UNK         0.0828 
    106 H106       31.6289  -47.7535  -55.5385 H         1 UNK         0.3005 
    107 H107       31.5197  -48.1109  -59.1143 H         1 UNK         0.1257 
    108 H108       33.3666  -46.5271  -57.2583 H         1 UNK         0.0775 
    109 H109       33.9541  -47.4260  -58.6256 H         1 UNK         0.0775 
    110 H110       34.5271  -44.3133  -58.3694 H         1 UNK         0.0840 
    111 H111       33.4044  -43.2465  -59.1736 H         1 UNK         0.0840 
    112 H112       33.2360  -49.1712  -57.0741 H         1 UNK         0.2987 
    113 H113       31.4179  -52.0946  -56.4073 H         1 UNK         0.0785 
    114 H114       32.4505  -52.7475  -58.5895 H         1 UNK         0.0798 
    115 H115       33.4078  -53.3166  -57.2336 H         1 UNK         0.0798 
    116 H116       33.9307  -51.9049  -58.1543 H         1 UNK         0.0798 
    117 H117       34.0532  -51.4336  -55.6848 H         1 UNK         0.3079 
    118 H118       34.2816  -50.8801  -53.2834 H         1 UNK         0.0794 
    119 H119       35.3204  -49.4629  -55.0429 H         1 UNK         0.0786 
    120 H120       35.4964  -48.6619  -53.4942 H         1 UNK         0.0786 
    121 H121       34.2716  -48.1123  -54.6341 H         1 UNK         0.0786 
    122 H122       33.1298  -48.3287  -52.4367 H         1 UNK         0.3032 
    123 H123       30.7804  -49.0571  -50.6918 H         1 UNK         0.1094 
    124 H124       31.3479  -49.0901  -48.2428 H         1 UNK         0.0794 
    125 H125       31.3631  -50.6920  -48.9589 H         1 UNK         0.0794 
    126 H126       32.8804  -49.8775  -48.6184 H         1 UNK         0.0794 
    127 H127       31.6066  -47.0061  -50.6184 H         1 UNK         0.3016 
@<TRIPOS>BOND
     1    1    2 1    
     2    1   67 1    
     3    1   68 1    
     4    1   69 1    
     5    2    3 2    
     6    2    4 am   BACKBONE|DICT|INTERRES
     7    4    5 1    
     8    4   70 1    
     9    5    6 1    
    10    5   65 1    
    11    5   71 1    
    12    6    7 1    
    13    6   72 1    
    14    6   73 1    
    15    7    8 1    
    16    8    9 1    
    17    8   74 1    
    18    8   75 1    
    19    9   10 ar   
    20    9   14 ar   
    21   10   11 ar   
    22   10   76 1    
    23   11   12 ar   
    24   11   48 1    
    25   12   13 ar   
    26   12   77 1    
    27   13   14 ar   
    28   13   15 1    
    29   14   78 1    
    30   15   16 1    
    31   15   79 1    
    32   15   80 1    
    33   16   17 1    
    34   17   18 1    
    35   17   81 1    
    36   17   82 1    
    37   18   19 1    
    38   18   22 1    
    39   18   83 1    
    40   19   20 am   BACKBONE|DICT|INTERRES
    41   19   21 2    
    42   20   84 1    
    43   20   85 1    
    44   22   23 am   BACKBONE|DICT|INTERRES
    45   22   86 1    
    46   23   24 2    
    47   23   25 1    
    48   25   26 1    
    49   25   27 1    
    50   25   87 1    
    51   26   88 1    
    52   26   89 1    
    53   26   90 1    
    54   27   28 am   BACKBONE|DICT|INTERRES
    55   27   91 1    
    56   28   29 2    
    57   28   30 1    
    58   30   31 1    
    59   30   32 1    
    60   30   92 1    
    61   31   93 1    
    62   31   94 1    
    63   31   95 1    
    64   32   33 am   BACKBONE|DICT|INTERRES
    65   32   96 1    
    66   33   34 2    
    67   33   35 1    
    68   35   36 1    
    69   35   37 1    
    70   35   97 1    
    71   36   98 1    
    72   36   99 1    
    73   36  100 1    
    74   37   38 am   BACKBONE|DICT|INTERRES
    75   37  101 1    
    76   38   39 2    
    77   38   40 1    
    78   40   41 1    
    79   40   42 1    
    80   40  102 1    
    81   41  103 1    
    82   41  104 1    
    83   41  105 1    
    84   42   43 am   BACKBONE|DICT|INTERRES
    85   42  106 1    
    86   43   44 2    
    87   43   45 1    
    88   45   46 1    
    89   45   49 1    
    90   45  107 1    
    91   46   47 1    
    92   46  108 1    
    93   46  109 1    
    94   47   48 1    
    95   48  110 1    
    96   48  111 1    
    97   49   50 am   BACKBONE|DICT|INTERRES
    98   49  112 1    
    99   50   51 2    
   100   50   52 1    
   101   52   53 1    
   102   52   54 1    
   103   52  113 1    
   104   53  114 1    
   105   53  115 1    
   106   53  116 1    
   107   54   55 am   BACKBONE|DICT|INTERRES
   108   54  117 1    
   109   55   56 2    
   110   55   57 1    
   111   57   58 1    
   112   57   59 1    
   113   57  118 1    
   114   58  119 1    
   115   58  120 1    
   116   58  121 1    
   117   59   60 am   BACKBONE|DICT|INTERRES
   118   59  122 1    
   119   60   61 2    
   120   60   62 1    
   121   62   63 1    
   122   62   64 1    
   123   62  123 1    
   124   63  124 1    
   125   63  125 1    
   126   63  126 1    
   127   64   65 am   BACKBONE|DICT|INTERRES
   128   64  127 1    
   129   65   66 2    
@<TRIPOS>SUBSTRUCTURE
     1 UNK         1 GROUP             0       ****    0 ROOT    
