@<TRIPOS>MOLECULE
3R134
127   129    1
SMALL
USER_CHARGES


@<TRIPOS>ATOM
      1 CA         30.5982  -45.6773  -52.4473 C.3       0 UNK        -0.1968 
      2 C          32.0032  -45.7312  -51.8790 C.2       0 UNK         0.4852 
      3 O          32.2994  -46.5922  -51.0510 O.2       0 UNK        -0.5359 
      4 N          32.8753  -44.8148  -52.3158 N.am      1 UNK        -0.4300 
      5 CA         34.2409  -44.6376  -51.8038 C.3       1 UNK         0.0863 
      6 C6         34.8957  -43.3258  -52.3038 C.3       11 UNK        -0.0953 
      7 S7         33.8752  -41.8492  -51.9566 S.3       11 UNK        -0.2369 
      8 C8         33.4297  -41.2728  -53.6271 C.3       11 UNK         0.0226 
      9 C9         32.4279  -42.1938  -54.3104 C.ar      11 UNK        -0.0699 
     10 C10        32.8790  -43.2196  -55.1481 C.ar      11 UNK        -0.0804 
     11 C11        31.9677  -44.0712  -55.7742 C.ar      11 UNK        -0.0871 
     12 C12        30.6002  -43.8750  -55.5827 C.ar      11 UNK        -0.1008 
     13 C13        30.1309  -42.8381  -54.7761 C.ar      11 UNK        -0.0735 
     14 C14        31.0513  -42.0052  -54.1291 C.ar      11 UNK        -0.0945 
     15 C15        28.6302  -42.6082  -54.6560 C.3       11 UNK         0.0169 
     16 S16        27.7591  -44.0632  -53.9855 S.3       11 UNK        -0.2669 
     17 C17        26.0428  -43.7233  -54.5062 C.3       11 UNK        -0.0850 
     18 CA         25.4255  -44.8631  -55.3760 C.3       10 UNK         0.0855 
     19 C          23.9173  -44.6266  -55.6925 C.2       10 UNK         0.5543 
     20 N          23.1050  -44.3346  -54.6847 N.am      10 UNK        -0.7343 
     21 O          23.4581  -44.7305  -56.8286 O.2       10 UNK        -0.5027 
     22 N          26.2210  -45.2165  -56.5690 N.am      10 UNK        -0.4495 
     23 C          26.5606  -44.3952  -57.5719 C.2       10 UNK         0.4903 
     24 O          26.3116  -43.1892  -57.5882 O.2       10 UNK        -0.4860 
     25 CA         27.3071  -45.0024  -58.7730 C.3       9 UNK         0.0227 
     26 CB         28.8101  -44.6849  -58.7137 C.3       9 UNK        -0.1964 
     27 N          27.1442  -46.4522  -58.9125 N.am      9 UNK        -0.4231 
     28 C          26.1967  -47.0366  -59.6582 C.2       9 UNK         0.5014 
     29 O          25.2773  -46.4245  -60.2031 O.2       9 UNK        -0.5270 
     30 CA         26.3108  -48.5532  -59.8679 C.3       8 UNK         0.0284 
     31 CB         27.4826  -48.8821  -60.8098 C.3       8 UNK        -0.1977 
     32 N          26.4961  -49.2633  -58.6028 N.am      8 UNK        -0.4342 
     33 C          25.6135  -50.1196  -58.0687 C.2       8 UNK         0.5039 
     34 O          24.5367  -50.4109  -58.5917 O.2       8 UNK        -0.5547 
     35 CA         25.9860  -50.7824  -56.7274 C.3       7 UNK         0.0281 
     36 CB         26.5048  -52.2106  -56.9611 C.3       7 UNK        -0.1963 
     37 N          26.9816  -50.0366  -55.9556 N.am      7 UNK        -0.4444 
     38 C          26.7793  -48.8261  -55.4171 C.2       7 UNK         0.5104 
     39 O          25.7040  -48.2313  -55.4617 O.2       7 UNK        -0.5100 
     40 CA         27.9893  -48.1412  -54.7580 C.3       6 UNK         0.0396 
     41 CB         27.9528  -48.3786  -53.2413 C.3       6 UNK        -0.1801 
     42 N          29.2852  -48.5787  -55.2897 N.am      6 UNK        -0.4747 
     43 C          29.6817  -48.4844  -56.5707 C.2       6 UNK         0.5012 
     44 O          28.9739  -48.0189  -57.4669 O.2       6 UNK        -0.5003 
     45 CA         31.0775  -49.0439  -56.9279 C.3       5 UNK         0.0782 
     46 C46        32.1124  -47.9288  -57.2132 C.3       11 UNK        -0.0868 
     47 S47        32.3958  -46.7899  -55.8099 S.3       11 UNK        -0.2515 
     48 C48        32.4429  -45.1922  -56.6782 C.3       11 UNK         0.0199 
     49 N          31.5866  -50.0105  -55.9512 N.am      5 UNK        -0.4607 
     50 C          31.0677  -51.2266  -55.7356 C.2       4 UNK         0.5031 
     51 O          30.0798  -51.6608  -56.3287 O.2       4 UNK        -0.5119 
     52 CA         31.7525  -52.0968  -54.6689 C.3       4 UNK         0.0263 
     53 CB         32.7667  -53.0473  -55.3240 C.3       4 UNK        -0.1967 
     54 N          32.4251  -51.3245  -53.6199 N.am      4 UNK        -0.4237 
     55 C          31.8115  -50.5488  -52.7180 C.2       3 UNK         0.4908 
     56 O          30.5977  -50.3464  -52.7057 O.2       3 UNK        -0.5102 
     57 CA         32.6985  -49.8814  -51.6559 C.3       3 UNK         0.0241 
     58 CB         33.3903  -50.9195  -50.7487 C.3       3 UNK        -0.1971 
     59 N          33.6539  -48.9105  -52.2043 N.am      3 UNK        -0.4139 
     60 C          34.7070  -49.1229  -53.0106 C.2       2 UNK         0.5016 
     61 O          35.0275  -50.2372  -53.4284 O.2       2 UNK        -0.5319 
     62 CA         35.5405  -47.8969  -53.4379 C.3       2 UNK         0.0286 
     63 CB         35.8737  -47.9368  -54.9404 C.3       2 UNK        -0.1963 
     64 N          34.8694  -46.6295  -53.1236 N.am      2 UNK        -0.4790 
     65 C          35.1604  -45.8507  -52.0699 C.2       1 UNK         0.5024 
     66 O          36.0943  -46.0726  -51.2983 O.2       1 UNK        -0.4888 
     67 H67        30.5319  -46.2553  -53.3686 H         1 UNK         0.0892 
     68 H68        29.8818  -46.0759  -51.7302 H         1 UNK         0.0892 
     69 H69        30.3117  -44.6495  -52.6597 H         1 UNK         0.0892 
     70 H70        32.5752  -44.1299  -52.9981 H         1 UNK         0.3107 
     71 H71        34.1521  -44.5598  -50.7178 H         1 UNK         0.0773 
     72 H72        35.1233  -43.3826  -53.3682 H         1 UNK         0.0680 
     73 H73        35.8559  -43.1770  -51.8062 H         1 UNK         0.0680 
     74 H74        34.3328  -41.1718  -54.2311 H         1 UNK         0.0650 
     75 H75        33.0077  -40.2699  -53.5474 H         1 UNK         0.0650 
     76 H76        33.9383  -43.3581  -55.3142 H         1 UNK         0.1397 
     77 H77        29.8899  -44.5341  -56.0573 H         1 UNK         0.1363 
     78 H78        30.6991  -41.2003  -53.4983 H         1 UNK         0.1355 
     79 H79        28.4149  -41.7433  -54.0269 H         1 UNK         0.0707 
     80 H80        28.2435  -42.3769  -55.6494 H         1 UNK         0.0707 
     81 H81        25.9873  -42.7680  -55.0298 H         1 UNK         0.1034 
     82 H82        25.4653  -43.5848  -53.5914 H         1 UNK         0.1034 
     83 H83        25.4378  -45.7629  -54.7621 H         1 UNK         0.0482 
     84 H84        23.4406  -44.2762  -53.7364 H         1 UNK         0.3460 
     85 H85        22.1257  -44.1903  -54.8763 H         1 UNK         0.3460 
     86 H86        26.4141  -46.2012  -56.6743 H         1 UNK         0.2989 
     87 H87        26.9100  -44.5086  -59.6627 H         1 UNK         0.0559 
     88 H88        28.9932  -43.6478  -58.4280 H         1 UNK         0.0848 
     89 H89        29.2787  -44.8387  -59.6857 H         1 UNK         0.0848 
     90 H90        29.3257  -45.3260  -58.0010 H         1 UNK         0.0848 
     91 H91        27.8625  -47.0293  -58.4787 H         1 UNK         0.3144 
     92 H92        25.3917  -48.8805  -60.3588 H         1 UNK         0.0727 
     93 H93        27.5169  -49.9477  -61.0372 H         1 UNK         0.0790 
     94 H94        28.4449  -48.6025  -60.3787 H         1 UNK         0.0790 
     95 H95        27.3823  -48.3523  -61.7582 H         1 UNK         0.0790 
     96 H96        27.3469  -49.0622  -58.0892 H         1 UNK         0.3215 
     97 H97        25.0736  -50.8409  -56.1299 H         1 UNK         0.0863 
     98 H98        26.6947  -52.7241  -56.0184 H         1 UNK         0.0808 
     99 H99        27.4315  -52.2139  -57.5369 H         1 UNK         0.0808 
    100 H100       25.7758  -52.8065  -57.5122 H         1 UNK         0.0808 
    101 H101       27.9017  -50.4500  -55.8752 H         1 UNK         0.3118 
    102 H102       27.9097  -47.0682  -54.9415 H         1 UNK         0.0546 
    103 H103       27.9666  -49.4423  -52.9999 H         1 UNK         0.0828 
    104 H104       27.0481  -47.9554  -52.8028 H         1 UNK         0.0828 
    105 H105       28.8017  -47.9182  -52.7402 H         1 UNK         0.0828 
    106 H106       29.9200  -49.0055  -54.6272 H         1 UNK         0.3005 
    107 H107       30.9379  -49.5934  -57.8621 H         1 UNK         0.1257 
    108 H108       33.0708  -48.3728  -57.4871 H         1 UNK         0.0775 
    109 H109       31.7956  -47.3685  -58.0941 H         1 UNK         0.0775 
    110 H110       33.4575  -45.0062  -57.0338 H         1 UNK         0.0840 
    111 H111       31.8079  -45.2127  -57.5643 H         1 UNK         0.0840 
    112 H112       32.3907  -49.7237  -55.4129 H         1 UNK         0.2987 
    113 H113       30.9751  -52.6984  -54.1933 H         1 UNK         0.0785 
    114 H114       33.1941  -53.7352  -54.5941 H         1 UNK         0.0798 
    115 H115       33.5874  -52.5016  -55.7917 H         1 UNK         0.0798 
    116 H116       32.2926  -53.6522  -56.0983 H         1 UNK         0.0798 
    117 H117       33.4416  -51.3472  -53.5946 H         1 UNK         0.3079 
    118 H118       32.0281  -49.3017  -51.0192 H         1 UNK         0.0794 
    119 H119       32.6574  -51.5891  -50.2966 H         1 UNK         0.0786 
    120 H120       33.9280  -50.4330  -49.9348 H         1 UNK         0.0786 
    121 H121       34.1022  -51.5404  -51.2928 H         1 UNK         0.0786 
    122 H122       33.4606  -47.9533  -51.9240 H         1 UNK         0.3032 
    123 H123       36.4843  -47.9641  -52.8923 H         1 UNK         0.1094 
    124 H124       34.9791  -48.0100  -55.5566 H         1 UNK         0.0794 
    125 H125       36.4245  -47.0486  -55.2500 H         1 UNK         0.0794 
    126 H126       36.4973  -48.7998  -55.1777 H         1 UNK         0.0794 
    127 H127       34.0813  -46.3790  -53.7062 H         1 UNK         0.3016 
@<TRIPOS>BOND
     1    1    2 1    
     2    1   67 1    
     3    1   68 1    
     4    1   69 1    
     5    2    3 2    
     6    2    4 am   BACKBONE|DICT|INTERRES
     7    4    5 1    
     8    4   70 1    
     9    5    6 1    
    10    5   65 1    
    11    5   71 1    
    12    6    7 1    
    13    6   72 1    
    14    6   73 1    
    15    7    8 1    
    16    8    9 1    
    17    8   74 1    
    18    8   75 1    
    19    9   10 ar   
    20    9   14 ar   
    21   10   11 ar   
    22   10   76 1    
    23   11   12 ar   
    24   11   48 1    
    25   12   13 ar   
    26   12   77 1    
    27   13   14 ar   
    28   13   15 1    
    29   14   78 1    
    30   15   16 1    
    31   15   79 1    
    32   15   80 1    
    33   16   17 1    
    34   17   18 1    
    35   17   81 1    
    36   17   82 1    
    37   18   19 1    
    38   18   22 1    
    39   18   83 1    
    40   19   20 am   BACKBONE|DICT|INTERRES
    41   19   21 2    
    42   20   84 1    
    43   20   85 1    
    44   22   23 am   BACKBONE|DICT|INTERRES
    45   22   86 1    
    46   23   24 2    
    47   23   25 1    
    48   25   26 1    
    49   25   27 1    
    50   25   87 1    
    51   26   88 1    
    52   26   89 1    
    53   26   90 1    
    54   27   28 am   BACKBONE|DICT|INTERRES
    55   27   91 1    
    56   28   29 2    
    57   28   30 1    
    58   30   31 1    
    59   30   32 1    
    60   30   92 1    
    61   31   93 1    
    62   31   94 1    
    63   31   95 1    
    64   32   33 am   BACKBONE|DICT|INTERRES
    65   32   96 1    
    66   33   34 2    
    67   33   35 1    
    68   35   36 1    
    69   35   37 1    
    70   35   97 1    
    71   36   98 1    
    72   36   99 1    
    73   36  100 1    
    74   37   38 am   BACKBONE|DICT|INTERRES
    75   37  101 1    
    76   38   39 2    
    77   38   40 1    
    78   40   41 1    
    79   40   42 1    
    80   40  102 1    
    81   41  103 1    
    82   41  104 1    
    83   41  105 1    
    84   42   43 am   BACKBONE|DICT|INTERRES
    85   42  106 1    
    86   43   44 2    
    87   43   45 1    
    88   45   46 1    
    89   45   49 1    
    90   45  107 1    
    91   46   47 1    
    92   46  108 1    
    93   46  109 1    
    94   47   48 1    
    95   48  110 1    
    96   48  111 1    
    97   49   50 am   BACKBONE|DICT|INTERRES
    98   49  112 1    
    99   50   51 2    
   100   50   52 1    
   101   52   53 1    
   102   52   54 1    
   103   52  113 1    
   104   53  114 1    
   105   53  115 1    
   106   53  116 1    
   107   54   55 am   BACKBONE|DICT|INTERRES
   108   54  117 1    
   109   55   56 2    
   110   55   57 1    
   111   57   58 1    
   112   57   59 1    
   113   57  118 1    
   114   58  119 1    
   115   58  120 1    
   116   58  121 1    
   117   59   60 am   BACKBONE|DICT|INTERRES
   118   59  122 1    
   119   60   61 2    
   120   60   62 1    
   121   62   63 1    
   122   62   64 1    
   123   62  123 1    
   124   63  124 1    
   125   63  125 1    
   126   63  126 1    
   127   64   65 am   BACKBONE|DICT|INTERRES
   128   64  127 1    
   129   65   66 2    
@<TRIPOS>SUBSTRUCTURE
     1 UNK         1 GROUP             0       ****    0 ROOT    
