@<TRIPOS>MOLECULE
3R134
127   129    1
SMALL
USER_CHARGES


@<TRIPOS>ATOM
      1 CA         32.1393  -48.9769  -58.0408 C.3       0 UNK        -0.1968 
      2 C          32.4675  -48.3222  -56.7081 C.2       0 UNK         0.4852 
      3 O          32.0023  -48.7795  -55.6651 O.2       0 UNK        -0.5359 
      4 N          33.2814  -47.2601  -56.7342 N.am      1 UNK        -0.4300 
      5 CA         33.7186  -46.4974  -55.5565 C.3       1 UNK         0.0863 
      6 C6         34.3684  -45.1531  -55.9629 C.3       11 UNK        -0.0953 
      7 S7         33.2615  -44.1036  -56.9616 S.3       11 UNK        -0.2369 
      8 C8         32.8177  -42.8058  -55.7687 C.3       11 UNK         0.0226 
      9 C9         31.7203  -43.2550  -54.8157 C.ar      11 UNK        -0.0699 
     10 C10        32.0313  -43.7539  -53.5470 C.ar      11 UNK        -0.0804 
     11 C11        31.0119  -44.1021  -52.6554 C.ar      11 UNK        -0.0871 
     12 C12        29.6769  -43.9362  -53.0401 C.ar      11 UNK        -0.1008 
     13 C13        29.3481  -43.4555  -54.3106 C.ar      11 UNK        -0.0735 
     14 C14        30.3822  -43.1293  -55.1970 C.ar      11 UNK        -0.0945 
     15 C15        27.8731  -43.3136  -54.6916 C.3       11 UNK         0.0169 
     16 S16        27.5407  -41.9646  -55.8748 S.3       11 UNK        -0.2669 
     17 C17        25.7153  -41.8773  -55.8678 C.3       11 UNK        -0.0850 
     18 CA         25.0372  -42.4146  -57.1557 C.3       10 UNK         0.0855 
     19 C          25.4438  -41.6187  -58.4338 C.2       10 UNK         0.5543 
     20 N          26.0777  -42.2294  -59.4293 N.am      10 UNK        -0.7343 
     21 O          25.1620  -40.4263  -58.5263 O.2       10 UNK        -0.5027 
     22 N          25.1640  -43.8749  -57.2720 N.am      10 UNK        -0.4495 
     23 C          24.3435  -44.6430  -58.0012 C.2       10 UNK         0.4903 
     24 O          23.3262  -44.2156  -58.5499 O.2       10 UNK        -0.4860 
     25 CA         24.7056  -46.1360  -58.1395 C.3       9 UNK         0.0227 
     26 CB         24.2027  -46.7364  -59.4692 C.3       9 UNK        -0.1964 
     27 N          26.1276  -46.4559  -57.9539 N.am      9 UNK        -0.4231 
     28 C          27.1782  -45.9736  -58.6404 C.2       9 UNK         0.5014 
     29 O          27.0934  -45.0686  -59.4722 O.2       9 UNK        -0.5270 
     30 CA         28.5597  -46.5964  -58.3553 C.3       8 UNK         0.0284 
     31 CB         29.4630  -45.6075  -57.6007 C.3       8 UNK        -0.1977 
     32 N          28.4721  -47.8549  -57.6056 N.am      8 UNK        -0.4342 
     33 C          28.1526  -49.0352  -58.1621 C.2       8 UNK         0.5039 
     34 O          27.9948  -49.1917  -59.3732 O.2       8 UNK        -0.5547 
     35 CA         27.9577  -50.2482  -57.2309 C.3       7 UNK         0.0281 
     36 CB         29.2147  -51.1329  -57.2252 C.3       7 UNK        -0.1963 
     37 N          27.6192  -49.8995  -55.8504 N.am      7 UNK        -0.4444 
     38 C          26.5148  -49.2530  -55.4515 C.2       7 UNK         0.5104 
     39 O          25.6110  -48.9045  -56.2100 O.2       7 UNK        -0.5100 
     40 CA         26.4492  -48.8669  -53.9623 C.3       6 UNK         0.0396 
     41 CB         25.7086  -49.9456  -53.1578 C.3       6 UNK        -0.1801 
     42 N          27.7713  -48.6374  -53.3672 N.am      6 UNK        -0.4747 
     43 C          28.6565  -47.7193  -53.7775 C.2       6 UNK         0.5012 
     44 O          28.4310  -46.9397  -54.7026 O.2       6 UNK        -0.5003 
     45 CA         30.0415  -47.7106  -53.1053 C.3       5 UNK         0.0782 
     46 C46        30.0103  -47.0827  -51.6877 C.3       11 UNK        -0.0868 
     47 S47        31.6511  -46.4216  -51.2413 S.3       11 UNK        -0.2515 
     48 C48        31.3504  -44.6229  -51.2636 C.3       11 UNK         0.0199 
     49 N          30.7126  -49.0180  -53.1538 N.am      5 UNK        -0.4607 
     50 C          30.3920  -50.1471  -52.5057 C.2       4 UNK         0.5031 
     51 O          29.3952  -50.2793  -51.7943 O.2       4 UNK        -0.5119 
     52 CA         31.3611  -51.3283  -52.6657 C.3       4 UNK         0.0263 
     53 CB         31.2644  -51.9487  -54.0692 C.3       4 UNK        -0.1967 
     54 N          32.7473  -50.9527  -52.3787 N.am      4 UNK        -0.4237 
     55 C          33.2046  -50.5444  -51.1870 C.2       3 UNK         0.4908 
     56 O          32.5041  -50.4814  -50.1759 O.2       3 UNK        -0.5102 
     57 CA         34.6873  -50.1412  -51.0740 C.3       3 UNK         0.0241 
     58 CB         35.5366  -51.3160  -50.5491 C.3       3 UNK        -0.1971 
     59 N          35.2860  -49.5491  -52.2800 N.am      3 UNK        -0.4139 
     60 C          35.5459  -50.1162  -53.4652 C.2       2 UNK         0.5016 
     61 O          35.2143  -51.2638  -53.7682 O.2       2 UNK        -0.5319 
     62 CA         36.2568  -49.2244  -54.4982 C.3       2 UNK         0.0286 
     63 CB         37.0176  -50.0509  -55.5513 C.3       2 UNK        -0.1963 
     64 N          35.3109  -48.3458  -55.1848 N.am      2 UNK        -0.4790 
     65 C          34.6890  -47.2853  -54.6486 C.2       1 UNK         0.5024 
     66 O          34.8776  -46.9051  -53.4922 O.2       1 UNK        -0.4888 
     67 H67        31.1176  -48.7427  -58.3334 H         1 UNK         0.0892 
     68 H68        32.8045  -48.6371  -58.8342 H         1 UNK         0.0892 
     69 H69        32.2357  -50.0594  -57.9625 H         1 UNK         0.0892 
     70 H70        33.6165  -46.9113  -57.6212 H         1 UNK         0.3107 
     71 H71        32.8328  -46.2804  -54.9554 H         1 UNK         0.0773 
     72 H72        34.6886  -44.5979  -55.0794 H         1 UNK         0.0680 
     73 H73        35.2735  -45.3290  -56.5474 H         1 UNK         0.0680 
     74 H74        33.7018  -42.4815  -55.2178 H         1 UNK         0.0650 
     75 H75        32.4771  -41.9309  -56.3244 H         1 UNK         0.0650 
     76 H76        33.0652  -43.8607  -53.2479 H         1 UNK         0.1397 
     77 H77        28.8844  -44.1818  -52.3472 H         1 UNK         0.1363 
     78 H78        30.1535  -42.7606  -56.1869 H         1 UNK         0.1355 
     79 H79        27.2836  -43.1312  -53.7918 H         1 UNK         0.0707 
     80 H80        27.5211  -44.2573  -55.1093 H         1 UNK         0.0707 
     81 H81        25.4363  -40.8328  -55.7167 H         1 UNK         0.1034 
     82 H82        25.3225  -42.4040  -54.9970 H         1 UNK         0.1034 
     83 H83        23.9718  -42.2100  -57.0311 H         1 UNK         0.0482 
     84 H84        26.3299  -43.2103  -59.3634 H         1 UNK         0.3460 
     85 H85        26.3281  -41.7027  -60.2504 H         1 UNK         0.3460 
     86 H86        25.9975  -44.2865  -56.8814 H         1 UNK         0.2989 
     87 H87        24.1794  -46.6444  -57.3305 H         1 UNK         0.0559 
     88 H88        23.1200  -46.6422  -59.5621 H         1 UNK         0.0848 
     89 H89        24.4387  -47.7985  -59.5383 H         1 UNK         0.0848 
     90 H90        24.6487  -46.2370  -60.3300 H         1 UNK         0.0848 
     91 H91        26.3019  -47.2035  -57.2919 H         1 UNK         0.3144 
     92 H92        29.0267  -46.7984  -59.3216 H         1 UNK         0.0727 
     93 H93        29.0395  -45.3285  -56.6378 H         1 UNK         0.0790 
     94 H94        29.5983  -44.6876  -58.1711 H         1 UNK         0.0790 
     95 H95        30.4540  -46.0236  -57.4208 H         1 UNK         0.0790 
     96 H96        28.5682  -47.7852  -56.5975 H         1 UNK         0.3215 
     97 H97        27.1286  -50.8319  -57.6366 H         1 UNK         0.0863 
     98 H98        29.0393  -52.0677  -56.6926 H         1 UNK         0.0808 
     99 H99        30.0580  -50.6301  -56.7514 H         1 UNK         0.0808 
    100 H100       29.5171  -51.3937  -58.2405 H         1 UNK         0.0808 
    101 H101       28.3036  -50.1263  -55.1446 H         1 UNK         0.3118 
    102 H102       25.8865  -47.9341  -53.8886 H         1 UNK         0.0546 
    103 H103       26.2434  -50.8963  -53.1680 H         1 UNK         0.0828 
    104 H104       24.7140  -50.1254  -53.5685 H         1 UNK         0.0828 
    105 H105       25.5786  -49.6454  -52.1180 H         1 UNK         0.0828 
    106 H106       28.0739  -49.2745  -52.6326 H         1 UNK         0.3005 
    107 H107       30.6454  -47.0579  -53.7397 H         1 UNK         0.1257 
    108 H108       29.2697  -46.2870  -51.6158 H         1 UNK         0.0775 
    109 H109       29.7133  -47.8129  -50.9343 H         1 UNK         0.0775 
    110 H110       30.5526  -44.3803  -50.5597 H         1 UNK         0.0840 
    111 H111       32.2417  -44.1158  -50.8909 H         1 UNK         0.0840 
    112 H112       31.4818  -49.0561  -53.8178 H         1 UNK         0.2987 
    113 H113       31.0695  -52.0913  -51.9408 H         1 UNK         0.0785 
    114 H114       30.2345  -52.2163  -54.3089 H         1 UNK         0.0798 
    115 H115       31.8586  -52.8600  -54.1379 H         1 UNK         0.0798 
    116 H116       31.6161  -51.2664  -54.8428 H         1 UNK         0.0798 
    117 H117       33.4254  -51.0384  -53.1308 H         1 UNK         0.3079 
    118 H118       34.7257  -49.3517  -50.3214 H         1 UNK         0.0794 
    119 H119       36.5707  -51.0147  -50.3819 H         1 UNK         0.0786 
    120 H120       35.5397  -52.1586  -51.2413 H         1 UNK         0.0786 
    121 H121       35.1484  -51.6819  -49.5976 H         1 UNK         0.0786 
    122 H122       35.4793  -48.5559  -52.2115 H         1 UNK         0.3032 
    123 H123       36.9867  -48.6088  -53.9668 H         1 UNK         0.1094 
    124 H124       37.5844  -49.4089  -56.2259 H         1 UNK         0.0794 
    125 H125       37.7293  -50.7271  -55.0755 H         1 UNK         0.0794 
    126 H126       36.3438  -50.6603  -56.1552 H         1 UNK         0.0794 
    127 H127       35.0748  -48.5952  -56.1340 H         1 UNK         0.3016 
@<TRIPOS>BOND
     1    1    2 1    
     2    1   67 1    
     3    1   68 1    
     4    1   69 1    
     5    2    3 2    
     6    2    4 am   BACKBONE|DICT|INTERRES
     7    4    5 1    
     8    4   70 1    
     9    5    6 1    
    10    5   65 1    
    11    5   71 1    
    12    6    7 1    
    13    6   72 1    
    14    6   73 1    
    15    7    8 1    
    16    8    9 1    
    17    8   74 1    
    18    8   75 1    
    19    9   10 ar   
    20    9   14 ar   
    21   10   11 ar   
    22   10   76 1    
    23   11   12 ar   
    24   11   48 1    
    25   12   13 ar   
    26   12   77 1    
    27   13   14 ar   
    28   13   15 1    
    29   14   78 1    
    30   15   16 1    
    31   15   79 1    
    32   15   80 1    
    33   16   17 1    
    34   17   18 1    
    35   17   81 1    
    36   17   82 1    
    37   18   19 1    
    38   18   22 1    
    39   18   83 1    
    40   19   20 am   BACKBONE|DICT|INTERRES
    41   19   21 2    
    42   20   84 1    
    43   20   85 1    
    44   22   23 am   BACKBONE|DICT|INTERRES
    45   22   86 1    
    46   23   24 2    
    47   23   25 1    
    48   25   26 1    
    49   25   27 1    
    50   25   87 1    
    51   26   88 1    
    52   26   89 1    
    53   26   90 1    
    54   27   28 am   BACKBONE|DICT|INTERRES
    55   27   91 1    
    56   28   29 2    
    57   28   30 1    
    58   30   31 1    
    59   30   32 1    
    60   30   92 1    
    61   31   93 1    
    62   31   94 1    
    63   31   95 1    
    64   32   33 am   BACKBONE|DICT|INTERRES
    65   32   96 1    
    66   33   34 2    
    67   33   35 1    
    68   35   36 1    
    69   35   37 1    
    70   35   97 1    
    71   36   98 1    
    72   36   99 1    
    73   36  100 1    
    74   37   38 am   BACKBONE|DICT|INTERRES
    75   37  101 1    
    76   38   39 2    
    77   38   40 1    
    78   40   41 1    
    79   40   42 1    
    80   40  102 1    
    81   41  103 1    
    82   41  104 1    
    83   41  105 1    
    84   42   43 am   BACKBONE|DICT|INTERRES
    85   42  106 1    
    86   43   44 2    
    87   43   45 1    
    88   45   46 1    
    89   45   49 1    
    90   45  107 1    
    91   46   47 1    
    92   46  108 1    
    93   46  109 1    
    94   47   48 1    
    95   48  110 1    
    96   48  111 1    
    97   49   50 am   BACKBONE|DICT|INTERRES
    98   49  112 1    
    99   50   51 2    
   100   50   52 1    
   101   52   53 1    
   102   52   54 1    
   103   52  113 1    
   104   53  114 1    
   105   53  115 1    
   106   53  116 1    
   107   54   55 am   BACKBONE|DICT|INTERRES
   108   54  117 1    
   109   55   56 2    
   110   55   57 1    
   111   57   58 1    
   112   57   59 1    
   113   57  118 1    
   114   58  119 1    
   115   58  120 1    
   116   58  121 1    
   117   59   60 am   BACKBONE|DICT|INTERRES
   118   59  122 1    
   119   60   61 2    
   120   60   62 1    
   121   62   63 1    
   122   62   64 1    
   123   62  123 1    
   124   63  124 1    
   125   63  125 1    
   126   63  126 1    
   127   64   65 am   BACKBONE|DICT|INTERRES
   128   64  127 1    
   129   65   66 2    
@<TRIPOS>SUBSTRUCTURE
     1 UNK         1 GROUP             0       ****    0 ROOT    
