@<TRIPOS>MOLECULE
3R134
127   129    1
SMALL
USER_CHARGES


@<TRIPOS>ATOM
      1 CA         34.3147  -44.5713  -48.7673 C.3       0 UNK        -0.1968 
      2 C          33.9018  -44.6275  -50.2308 C.2       0 UNK         0.4852 
      3 O          32.9738  -43.9179  -50.6183 O.2       0 UNK        -0.5359 
      4 N          34.5789  -45.4792  -51.0174 N.am      1 UNK        -0.4300 
      5 CA         34.4709  -45.7659  -52.4610 C.3       1 UNK         0.0863 
      6 C6         35.1470  -44.7201  -53.3907 C.3       11 UNK        -0.0953 
      7 S7         34.3904  -43.0600  -53.4298 S.3       11 UNK        -0.2369 
      8 C8         34.5849  -42.5954  -55.1790 C.3       11 UNK         0.0226 
      9 C9         33.4852  -43.1762  -56.0564 C.ar      11 UNK        -0.0699 
     10 C10        33.7536  -44.2276  -56.9395 C.ar      11 UNK        -0.0804 
     11 C11        32.7480  -44.7292  -57.7742 C.ar      11 UNK        -0.0871 
     12 C12        31.4672  -44.1706  -57.7149 C.ar      11 UNK        -0.1008 
     13 C13        31.1817  -43.1360  -56.8210 C.ar      11 UNK        -0.0735 
     14 C14        32.1976  -42.6348  -56.0032 C.ar      11 UNK        -0.0945 
     15 C15        29.7747  -42.5690  -56.7309 C.3       11 UNK         0.0169 
     16 S16        28.9708  -43.0971  -55.1884 S.3       11 UNK        -0.2669 
     17 C17        27.2321  -42.6518  -55.5102 C.3       11 UNK        -0.0850 
     18 CA         26.2249  -43.6117  -54.8220 C.3       10 UNK         0.0855 
     19 C          24.7675  -43.1790  -55.1610 C.2       10 UNK         0.5543 
     20 N          24.0436  -43.8945  -56.0155 N.am      10 UNK        -0.7343 
     21 O          24.2912  -42.1734  -54.6406 O.2       10 UNK        -0.5027 
     22 N          26.5220  -45.0214  -55.1184 N.am      10 UNK        -0.4495 
     23 C          25.9495  -46.0799  -54.5310 C.2       10 UNK         0.4903 
     24 O          25.2112  -45.9941  -53.5484 O.2       10 UNK        -0.4860 
     25 CA         26.2341  -47.4650  -55.1523 C.3       9 UNK         0.0227 
     26 CB         25.0050  -48.3942  -55.0783 C.3       9 UNK        -0.1964 
     27 N          26.7590  -47.4201  -56.5256 N.am      9 UNK        -0.4231 
     28 C          26.1845  -46.8728  -57.6106 C.2       9 UNK         0.5014 
     29 O          25.0965  -46.2945  -57.6004 O.2       9 UNK        -0.5270 
     30 CA         26.9808  -46.9555  -58.9197 C.3       8 UNK         0.0284 
     31 CB         28.1379  -45.9411  -58.9085 C.3       8 UNK        -0.1977 
     32 N          27.5122  -48.3044  -59.1121 N.am      8 UNK        -0.4342 
     33 C          26.9174  -49.2631  -59.8361 C.2       8 UNK         0.5039 
     34 O          25.9043  -49.0845  -60.5135 O.2       8 UNK        -0.5547 
     35 CA         27.5511  -50.6674  -59.7957 C.3       7 UNK         0.0281 
     36 CB         28.5751  -50.8289  -60.9309 C.3       7 UNK        -0.1963 
     37 N          28.1970  -50.9636  -58.5150 N.am      7 UNK        -0.4444 
     38 C          27.5513  -51.1121  -57.3496 C.2       7 UNK         0.5104 
     39 O          26.3255  -51.1603  -57.2509 O.2       7 UNK        -0.5100 
     40 CA         28.4107  -51.1936  -56.0732 C.3       6 UNK         0.0396 
     41 CB         28.4696  -52.6371  -55.5505 C.3       6 UNK        -0.1801 
     42 N          29.7797  -50.6828  -56.2157 N.am      6 UNK        -0.4747 
     43 C          30.1276  -49.4247  -56.5222 C.2       6 UNK         0.5012 
     44 O          29.3028  -48.5566  -56.8152 O.2       6 UNK        -0.5003 
     45 CA         31.6400  -49.1008  -56.5079 C.3       5 UNK         0.0782 
     46 C46        31.9552  -47.6210  -56.8372 C.3       11 UNK        -0.0868 
     47 S47        31.8615  -47.2492  -58.6189 S.3       11 UNK        -0.2515 
     48 C48        33.0501  -45.8690  -58.7437 C.3       11 UNK         0.0199 
     49 N          32.2438  -49.4683  -55.2271 N.am      5 UNK        -0.4607 
     50 C          32.5851  -50.6991  -54.8295 C.2       4 UNK         0.5031 
     51 O          32.4430  -51.7051  -55.5249 O.2       4 UNK        -0.5119 
     52 CA         33.1320  -50.8261  -53.4008 C.3       4 UNK         0.0263 
     53 CB         34.6130  -50.4170  -53.3429 C.3       4 UNK        -0.1967 
     54 N          32.3567  -50.0096  -52.4646 N.am      4 UNK        -0.4237 
     55 C          31.1553  -50.3528  -51.9774 C.2       3 UNK         0.4908 
     56 O          30.6069  -51.4325  -52.2009 O.2       3 UNK        -0.5102 
     57 CA         30.4445  -49.3193  -51.0866 C.3       3 UNK         0.0241 
     58 CB         30.8674  -49.4900  -49.6184 C.3       3 UNK        -0.1971 
     59 N          30.6908  -47.9375  -51.5058 N.am      3 UNK        -0.4139 
     60 C          30.1777  -47.3751  -52.6096 C.2       2 UNK         0.5016 
     61 O          29.4050  -47.9477  -53.3757 O.2       2 UNK        -0.5319 
     62 CA         30.6129  -45.9315  -52.9137 C.3       2 UNK         0.0286 
     63 CB         29.6651  -44.9399  -52.2209 C.3       2 UNK        -0.1963 
     64 N          31.9935  -45.6311  -52.5167 N.am      2 UNK        -0.4790 
     65 C          33.0930  -46.2362  -52.9792 C.2       1 UNK         0.5024 
     66 O          33.0535  -47.1825  -53.7650 O.2       1 UNK        -0.4888 
     67 H67        34.6349  -43.5629  -48.5083 H         1 UNK         0.0892 
     68 H68        33.4718  -44.8347  -48.1296 H         1 UNK         0.0892 
     69 H69        35.1341  -45.2538  -48.5446 H         1 UNK         0.0892 
     70 H70        35.3001  -46.0247  -50.5659 H         1 UNK         0.3107 
     71 H71        35.0906  -46.6590  -52.5599 H         1 UNK         0.0773 
     72 H72        35.1882  -45.1140  -54.4078 H         1 UNK         0.0680 
     73 H73        36.1879  -44.5930  -53.0901 H         1 UNK         0.0680 
     74 H74        34.5577  -41.5073  -55.2526 H         1 UNK         0.0650 
     75 H75        35.5721  -42.8972  -55.5325 H         1 UNK         0.0650 
     76 H76        34.7489  -44.6482  -56.9831 H         1 UNK         0.1397 
     77 H77        30.6880  -44.5564  -58.3568 H         1 UNK         0.1363 
     78 H78        31.9817  -41.8304  -55.3132 H         1 UNK         0.1355 
     79 H79        29.8092  -41.4793  -56.7696 H         1 UNK         0.0707 
     80 H80        29.1812  -42.8949  -57.5864 H         1 UNK         0.0707 
     81 H81        27.0578  -42.6392  -56.5878 H         1 UNK         0.1034 
     82 H82        27.0772  -41.6271  -55.1664 H         1 UNK         0.1034 
     83 H83        26.3395  -43.4899  -53.7432 H         1 UNK         0.0482 
     84 H84        23.1019  -43.6058  -56.2270 H         1 UNK         0.3460 
     85 H85        24.4310  -44.7193  -56.4614 H         1 UNK         0.3460 
     86 H86        27.1377  -45.1860  -55.8992 H         1 UNK         0.2989 
     87 H87        27.0219  -47.9129  -54.5466 H         1 UNK         0.0559 
     88 H88        24.6884  -48.5478  -54.0461 H         1 UNK         0.0848 
     89 H89        25.2248  -49.3766  -55.4951 H         1 UNK         0.0848 
     90 H90        24.1542  -47.9821  -55.6219 H         1 UNK         0.0848 
     91 H91        27.6885  -47.8262  -56.6352 H         1 UNK         0.3144 
     92 H92        26.3111  -46.6949  -59.7421 H         1 UNK         0.0727 
     93 H93        28.6928  -45.9652  -59.8464 H         1 UNK         0.0790 
     94 H94        28.8445  -46.1369  -58.1008 H         1 UNK         0.0790 
     95 H95        27.7650  -44.9243  -58.7780 H         1 UNK         0.0790 
     96 H96        28.3176  -48.5510  -58.5462 H         1 UNK         0.3215 
     97 H97        26.7510  -51.3955  -59.9473 H         1 UNK         0.0863 
     98 H98        28.9793  -51.8409  -60.9609 H         1 UNK         0.0808 
     99 H99        29.4100  -50.1347  -60.8256 H         1 UNK         0.0808 
    100 H100       28.1134  -50.6376  -61.9007 H         1 UNK         0.0808 
    101 H101       29.2061  -50.9657  -58.4969 H         1 UNK         0.3118 
    102 H102       27.9161  -50.5787  -55.3181 H         1 UNK         0.0546 
    103 H103       27.4673  -53.0397  -55.3974 H         1 UNK         0.0828 
    104 H104       28.9875  -52.6901  -54.5923 H         1 UNK         0.0828 
    105 H105       28.9844  -53.2982  -56.2486 H         1 UNK         0.0828 
    106 H106       30.5323  -51.3252  -55.9866 H         1 UNK         0.3005 
    107 H107       32.1027  -49.7221  -57.2783 H         1 UNK         0.1257 
    108 H108       31.3090  -46.9368  -56.2831 H         1 UNK         0.0775 
    109 H109       32.9716  -47.3868  -56.5153 H         1 UNK         0.0775 
    110 H110       34.0553  -46.2605  -58.5799 H         1 UNK         0.0840 
    111 H111       33.0337  -45.4802  -59.7626 H         1 UNK         0.0840 
    112 H112       32.4150  -48.6913  -54.5932 H         1 UNK         0.2987 
    113 H113       33.0564  -51.8741  -53.1021 H         1 UNK         0.0785 
    114 H114       35.0212  -50.5491  -52.3408 H         1 UNK         0.0798 
    115 H115       34.7613  -49.3756  -53.6311 H         1 UNK         0.0798 
    116 H116       35.2113  -51.0296  -54.0187 H         1 UNK         0.0798 
    117 H117       32.7148  -49.0886  -52.2594 H         1 UNK         0.3079 
    118 H118       29.3708  -49.5082  -51.1563 H         1 UNK         0.0794 
    119 H119       30.6731  -50.5065  -49.2730 H         1 UNK         0.0786 
    120 H120       30.3123  -48.8167  -48.9648 H         1 UNK         0.0786 
    121 H121       31.9313  -49.2956  -49.4763 H         1 UNK         0.0786 
    122 H122       31.3019  -47.3786  -50.9284 H         1 UNK         0.3032 
    123 H123       30.5411  -45.7846  -53.9941 H         1 UNK         0.1094 
    124 H124       29.9372  -43.9088  -52.4466 H         1 UNK         0.0794 
    125 H125       28.6370  -45.0843  -52.5569 H         1 UNK         0.0794 
    126 H126       29.6777  -45.0568  -51.1367 H         1 UNK         0.0794 
    127 H127       32.1400  -44.8657  -51.8575 H         1 UNK         0.3016 
@<TRIPOS>BOND
     1    1    2 1    
     2    1   67 1    
     3    1   68 1    
     4    1   69 1    
     5    2    3 2    
     6    2    4 am   BACKBONE|DICT|INTERRES
     7    4    5 1    
     8    4   70 1    
     9    5    6 1    
    10    5   65 1    
    11    5   71 1    
    12    6    7 1    
    13    6   72 1    
    14    6   73 1    
    15    7    8 1    
    16    8    9 1    
    17    8   74 1    
    18    8   75 1    
    19    9   10 ar   
    20    9   14 ar   
    21   10   11 ar   
    22   10   76 1    
    23   11   12 ar   
    24   11   48 1    
    25   12   13 ar   
    26   12   77 1    
    27   13   14 ar   
    28   13   15 1    
    29   14   78 1    
    30   15   16 1    
    31   15   79 1    
    32   15   80 1    
    33   16   17 1    
    34   17   18 1    
    35   17   81 1    
    36   17   82 1    
    37   18   19 1    
    38   18   22 1    
    39   18   83 1    
    40   19   20 am   BACKBONE|DICT|INTERRES
    41   19   21 2    
    42   20   84 1    
    43   20   85 1    
    44   22   23 am   BACKBONE|DICT|INTERRES
    45   22   86 1    
    46   23   24 2    
    47   23   25 1    
    48   25   26 1    
    49   25   27 1    
    50   25   87 1    
    51   26   88 1    
    52   26   89 1    
    53   26   90 1    
    54   27   28 am   BACKBONE|DICT|INTERRES
    55   27   91 1    
    56   28   29 2    
    57   28   30 1    
    58   30   31 1    
    59   30   32 1    
    60   30   92 1    
    61   31   93 1    
    62   31   94 1    
    63   31   95 1    
    64   32   33 am   BACKBONE|DICT|INTERRES
    65   32   96 1    
    66   33   34 2    
    67   33   35 1    
    68   35   36 1    
    69   35   37 1    
    70   35   97 1    
    71   36   98 1    
    72   36   99 1    
    73   36  100 1    
    74   37   38 am   BACKBONE|DICT|INTERRES
    75   37  101 1    
    76   38   39 2    
    77   38   40 1    
    78   40   41 1    
    79   40   42 1    
    80   40  102 1    
    81   41  103 1    
    82   41  104 1    
    83   41  105 1    
    84   42   43 am   BACKBONE|DICT|INTERRES
    85   42  106 1    
    86   43   44 2    
    87   43   45 1    
    88   45   46 1    
    89   45   49 1    
    90   45  107 1    
    91   46   47 1    
    92   46  108 1    
    93   46  109 1    
    94   47   48 1    
    95   48  110 1    
    96   48  111 1    
    97   49   50 am   BACKBONE|DICT|INTERRES
    98   49  112 1    
    99   50   51 2    
   100   50   52 1    
   101   52   53 1    
   102   52   54 1    
   103   52  113 1    
   104   53  114 1    
   105   53  115 1    
   106   53  116 1    
   107   54   55 am   BACKBONE|DICT|INTERRES
   108   54  117 1    
   109   55   56 2    
   110   55   57 1    
   111   57   58 1    
   112   57   59 1    
   113   57  118 1    
   114   58  119 1    
   115   58  120 1    
   116   58  121 1    
   117   59   60 am   BACKBONE|DICT|INTERRES
   118   59  122 1    
   119   60   61 2    
   120   60   62 1    
   121   62   63 1    
   122   62   64 1    
   123   62  123 1    
   124   63  124 1    
   125   63  125 1    
   126   63  126 1    
   127   64   65 am   BACKBONE|DICT|INTERRES
   128   64  127 1    
   129   65   66 2    
@<TRIPOS>SUBSTRUCTURE
     1 UNK         1 GROUP             0       ****    0 ROOT    
