@<TRIPOS>MOLECULE
3R134
127   129    1
SMALL
USER_CHARGES


@<TRIPOS>ATOM
      1 CA         38.4814  -43.1475  -52.0396 C.3       0 UNK        -0.1968 
      2 C          38.1029  -43.9478  -53.2771 C.2       0 UNK         0.4852 
      3 O          38.9813  -44.5048  -53.9370 O.2       0 UNK        -0.5359 
      4 N          36.8027  -44.0086  -53.5959 N.am      1 UNK        -0.4300 
      5 CA         36.2461  -44.7462  -54.7376 C.3       1 UNK         0.0863 
      6 C6         34.8392  -44.2319  -55.1358 C.3       11 UNK        -0.0953 
      7 S7         33.6524  -44.1040  -53.7507 S.3       11 UNK        -0.2369 
      8 C8         32.4300  -45.3890  -54.1552 C.3       11 UNK         0.0226 
      9 C9         31.0394  -44.9624  -53.7110 C.ar      11 UNK        -0.0699 
     10 C10        30.5807  -45.2492  -52.4219 C.ar      11 UNK        -0.0804 
     11 C11        29.3085  -44.8323  -52.0150 C.ar      11 UNK        -0.0871 
     12 C12        28.4890  -44.1445  -52.9151 C.ar      11 UNK        -0.1008 
     13 C13        28.9315  -43.8521  -54.2087 C.ar      11 UNK        -0.0735 
     14 C14        30.2160  -44.2573  -54.5931 C.ar      11 UNK        -0.0945 
     15 C15        28.0178  -43.0559  -55.1404 C.3       11 UNK         0.0169 
     16 S16        28.2439  -43.4258  -56.9110 S.3       11 UNK        -0.2669 
     17 C17        26.8868  -42.4553  -57.6536 C.3       11 UNK        -0.0850 
     18 CA         25.6511  -43.3301  -58.0188 C.3       10 UNK         0.0855 
     19 C          24.4595  -42.4855  -58.5637 C.2       10 UNK         0.5543 
     20 N          23.6539  -42.9989  -59.4854 N.am      10 UNK        -0.7343 
     21 O          24.2393  -41.3596  -58.1234 O.2       10 UNK        -0.5027 
     22 N          26.0005  -44.5098  -58.8311 N.am      10 UNK        -0.4495 
     23 C          26.5545  -44.5104  -60.0489 C.2       10 UNK         0.4903 
     24 O          26.7890  -43.4912  -60.7006 O.2       10 UNK        -0.4860 
     25 CA         26.9306  -45.8945  -60.6149 C.3       9 UNK         0.0227 
     26 CB         27.4859  -45.8172  -62.0499 C.3       9 UNK        -0.1964 
     27 N          27.9041  -46.5899  -59.7651 N.am      9 UNK        -0.4231 
     28 C          27.6218  -47.2226  -58.6186 C.2       9 UNK         0.5014 
     29 O          26.4929  -47.2605  -58.1205 O.2       9 UNK        -0.5270 
     30 CA         28.8027  -47.9018  -57.9003 C.3       8 UNK         0.0284 
     31 CB         29.3901  -46.9761  -56.8223 C.3       8 UNK        -0.1977 
     32 N          28.4054  -49.1609  -57.2715 N.am      8 UNK        -0.4342 
     33 C          27.9515  -50.2435  -57.9181 C.2       8 UNK         0.5039 
     34 O          27.8998  -50.3430  -59.1452 O.2       8 UNK        -0.5547 
     35 CA         27.4774  -51.4172  -57.0493 C.3       7 UNK         0.0281 
     36 CB         28.6608  -52.3294  -56.6863 C.3       7 UNK        -0.1963 
     37 N          26.8180  -50.9502  -55.8266 N.am      7 UNK        -0.4444 
     38 C          25.5106  -50.6670  -55.7331 C.2       7 UNK         0.5104 
     39 O          24.7137  -50.8120  -56.6608 O.2       7 UNK        -0.5100 
     40 CA         24.9829  -50.1654  -54.3749 C.3       6 UNK         0.0396 
     41 CB         24.3060  -51.3154  -53.6114 C.3       6 UNK        -0.1801 
     42 N          26.0271  -49.5842  -53.5283 N.am      6 UNK        -0.4747 
     43 C          26.4734  -48.3226  -53.6205 C.2       6 UNK         0.5012 
     44 O          26.0018  -47.4838  -54.3870 O.2       6 UNK        -0.5003 
     45 CA         27.6617  -47.9395  -52.7130 C.3       5 UNK         0.0782 
     46 C46        27.1637  -47.2369  -51.4244 C.3       11 UNK        -0.0868 
     47 S47        28.5204  -46.8498  -50.2624 S.3       11 UNK        -0.2515 
     48 C48        28.8289  -45.0878  -50.5924 C.3       11 UNK         0.0199 
     49 N          28.5527  -49.0678  -52.4095 N.am      5 UNK        -0.4607 
     50 C          29.2576  -49.7529  -53.3132 C.2       4 UNK         0.5031 
     51 O          29.1130  -49.6320  -54.5315 O.2       4 UNK        -0.5119 
     52 CA         30.2731  -50.7665  -52.7672 C.3       4 UNK         0.0263 
     53 CB         29.6939  -52.1897  -52.8021 C.3       4 UNK        -0.1967 
     54 N          31.5080  -50.7157  -53.5501 N.am      4 UNK        -0.4237 
     55 C          32.3568  -49.6796  -53.5310 C.2       3 UNK         0.4908 
     56 O          32.2497  -48.7195  -52.7638 O.2       3 UNK        -0.5102 
     57 CA         33.4798  -49.7076  -54.5820 C.3       3 UNK         0.0241 
     58 CB         32.9554  -49.1784  -55.9285 C.3       3 UNK        -0.1971 
     59 N          34.6432  -48.9114  -54.1874 N.am      3 UNK        -0.4139 
     60 C          35.4428  -49.1516  -53.1423 C.2       2 UNK         0.5016 
     61 O          35.3234  -50.1349  -52.4090 O.2       2 UNK        -0.5319 
     62 CA         36.5759  -48.1458  -52.8491 C.3       2 UNK         0.0286 
     63 CB         37.9268  -48.6882  -53.3570 C.3       2 UNK        -0.1963 
     64 N          36.3701  -46.7586  -53.3062 N.am      2 UNK        -0.4790 
     65 C          36.2778  -46.2801  -54.5579 C.2       1 UNK         0.5024 
     66 O          36.2225  -46.9957  -55.5583 O.2       1 UNK        -0.4888 
     67 H67        37.6094  -42.7097  -51.5540 H         1 UNK         0.0892 
     68 H68        38.9851  -43.7894  -51.3173 H         1 UNK         0.0892 
     69 H69        39.1604  -42.3390  -52.3092 H         1 UNK         0.0892 
     70 H70        36.1216  -43.5270  -53.0247 H         1 UNK         0.3107 
     71 H71        36.9000  -44.5460  -55.5897 H         1 UNK         0.0773 
     72 H72        34.9401  -43.2285  -55.5522 H         1 UNK         0.0680 
     73 H73        34.4222  -44.8306  -55.9474 H         1 UNK         0.0680 
     74 H74        32.7209  -46.3207  -53.6706 H         1 UNK         0.0650 
     75 H75        32.4204  -45.5892  -55.2272 H         1 UNK         0.0650 
     76 H76        31.2183  -45.7860  -51.7322 H         1 UNK         0.1397 
     77 H77        27.5068  -43.8174  -52.6013 H         1 UNK         0.1363 
     78 H78        30.5875  -44.0191  -55.5797 H         1 UNK         0.1355 
     79 H79        26.9746  -43.2492  -54.8846 H         1 UNK         0.0707 
     80 H80        28.1919  -41.9921  -54.9740 H         1 UNK         0.0707 
     81 H81        26.6036  -41.6568  -56.9654 H         1 UNK         0.1034 
     82 H82        27.2728  -41.9541  -58.5426 H         1 UNK         0.1034 
     83 H83        25.2758  -43.7444  -57.0825 H         1 UNK         0.0482 
     84 H84        23.8200  -43.9250  -59.8454 H         1 UNK         0.3460 
     85 H85        22.8785  -42.4530  -59.8267 H         1 UNK         0.3460 
     86 H86        25.8884  -45.4116  -58.3763 H         1 UNK         0.2989 
     87 H87        26.0139  -46.4871  -60.6503 H         1 UNK         0.0559 
     88 H88        26.7711  -45.3374  -62.7199 H         1 UNK         0.0848 
     89 H89        27.6860  -46.8102  -62.4528 H         1 UNK         0.0848 
     90 H90        28.4118  -45.2424  -62.0963 H         1 UNK         0.0848 
     91 H91        28.8641  -46.5677  -60.0782 H         1 UNK         0.3144 
     92 H92        29.5816  -48.1294  -58.6308 H         1 UNK         0.0727 
     93 H93        28.6379  -46.6886  -56.0855 H         1 UNK         0.0790 
     94 H94        29.7795  -46.0589  -57.2651 H         1 UNK         0.0790 
     95 H95        30.2124  -47.4524  -56.2881 H         1 UNK         0.0790 
     96 H96        28.4714  -49.2013  -56.2580 H         1 UNK         0.3215 
     97 H97        26.7700  -52.0057  -57.6382 H         1 UNK         0.0863 
     98 H98        28.3406  -53.1710  -56.0721 H         1 UNK         0.0808 
     99 H99        29.4391  -51.7905  -56.1455 H         1 UNK         0.0808 
    100 H100       29.1202  -52.7417  -57.5857 H         1 UNK         0.0808 
    101 H101       27.4213  -50.7254  -55.0456 H         1 UNK         0.3118 
    102 H102       24.2261  -49.4043  -54.5769 H         1 UNK         0.0546 
    103 H103       25.0085  -52.1164  -53.3779 H         1 UNK         0.0828 
    104 H104       23.4987  -51.7528  -54.2007 H         1 UNK         0.0828 
    105 H105       23.8683  -50.9676  -52.6755 H         1 UNK         0.0828 
    106 H106       26.4666  -50.1963  -52.8556 H         1 UNK         0.3005 
    107 H107       28.2563  -47.2190  -53.2802 H         1 UNK         0.1257 
    108 H108       26.4519  -47.8731  -50.8947 H         1 UNK         0.0775 
    109 H109       26.6242  -46.3202  -51.6703 H         1 UNK         0.0775 
    110 H110       27.9229  -44.5196  -50.3755 H         1 UNK         0.0840 
    111 H111       29.5849  -44.7279  -49.8931 H         1 UNK         0.0840 
    112 H112       28.7342  -49.2203  -51.4276 H         1 UNK         0.2987 
    113 H113       30.5120  -50.5125  -51.7320 H         1 UNK         0.0785 
    114 H114       28.7822  -52.2553  -52.2068 H         1 UNK         0.0798 
    115 H115       30.3984  -52.9133  -52.3915 H         1 UNK         0.0798 
    116 H116       29.4442  -52.5047  -53.8149 H         1 UNK         0.0798 
    117 H117       31.6409  -51.4453  -54.2347 H         1 UNK         0.3079 
    118 H118       33.8099  -50.7407  -54.7095 H         1 UNK         0.0794 
    119 H119       32.0915  -49.7506  -56.2706 H         1 UNK         0.0786 
    120 H120       33.7168  -49.2466  -56.7059 H         1 UNK         0.0786 
    121 H121       32.6442  -48.1357  -55.8553 H         1 UNK         0.0786 
    122 H122       34.8771  -48.1128  -54.7667 H         1 UNK         0.3032 
    123 H123       36.6393  -48.0855  -51.7611 H         1 UNK         0.1094 
    124 H124       38.7493  -48.0303  -53.0757 H         1 UNK         0.0794 
    125 H125       38.1380  -49.6703  -52.9315 H         1 UNK         0.0794 
    126 H126       37.9400  -48.7968  -54.4419 H         1 UNK         0.0794 
    127 H127       36.3534  -46.0704  -52.5661 H         1 UNK         0.3016 
@<TRIPOS>BOND
     1    1    2 1    
     2    1   67 1    
     3    1   68 1    
     4    1   69 1    
     5    2    3 2    
     6    2    4 am   BACKBONE|DICT|INTERRES
     7    4    5 1    
     8    4   70 1    
     9    5    6 1    
    10    5   65 1    
    11    5   71 1    
    12    6    7 1    
    13    6   72 1    
    14    6   73 1    
    15    7    8 1    
    16    8    9 1    
    17    8   74 1    
    18    8   75 1    
    19    9   10 ar   
    20    9   14 ar   
    21   10   11 ar   
    22   10   76 1    
    23   11   12 ar   
    24   11   48 1    
    25   12   13 ar   
    26   12   77 1    
    27   13   14 ar   
    28   13   15 1    
    29   14   78 1    
    30   15   16 1    
    31   15   79 1    
    32   15   80 1    
    33   16   17 1    
    34   17   18 1    
    35   17   81 1    
    36   17   82 1    
    37   18   19 1    
    38   18   22 1    
    39   18   83 1    
    40   19   20 am   BACKBONE|DICT|INTERRES
    41   19   21 2    
    42   20   84 1    
    43   20   85 1    
    44   22   23 am   BACKBONE|DICT|INTERRES
    45   22   86 1    
    46   23   24 2    
    47   23   25 1    
    48   25   26 1    
    49   25   27 1    
    50   25   87 1    
    51   26   88 1    
    52   26   89 1    
    53   26   90 1    
    54   27   28 am   BACKBONE|DICT|INTERRES
    55   27   91 1    
    56   28   29 2    
    57   28   30 1    
    58   30   31 1    
    59   30   32 1    
    60   30   92 1    
    61   31   93 1    
    62   31   94 1    
    63   31   95 1    
    64   32   33 am   BACKBONE|DICT|INTERRES
    65   32   96 1    
    66   33   34 2    
    67   33   35 1    
    68   35   36 1    
    69   35   37 1    
    70   35   97 1    
    71   36   98 1    
    72   36   99 1    
    73   36  100 1    
    74   37   38 am   BACKBONE|DICT|INTERRES
    75   37  101 1    
    76   38   39 2    
    77   38   40 1    
    78   40   41 1    
    79   40   42 1    
    80   40  102 1    
    81   41  103 1    
    82   41  104 1    
    83   41  105 1    
    84   42   43 am   BACKBONE|DICT|INTERRES
    85   42  106 1    
    86   43   44 2    
    87   43   45 1    
    88   45   46 1    
    89   45   49 1    
    90   45  107 1    
    91   46   47 1    
    92   46  108 1    
    93   46  109 1    
    94   47   48 1    
    95   48  110 1    
    96   48  111 1    
    97   49   50 am   BACKBONE|DICT|INTERRES
    98   49  112 1    
    99   50   51 2    
   100   50   52 1    
   101   52   53 1    
   102   52   54 1    
   103   52  113 1    
   104   53  114 1    
   105   53  115 1    
   106   53  116 1    
   107   54   55 am   BACKBONE|DICT|INTERRES
   108   54  117 1    
   109   55   56 2    
   110   55   57 1    
   111   57   58 1    
   112   57   59 1    
   113   57  118 1    
   114   58  119 1    
   115   58  120 1    
   116   58  121 1    
   117   59   60 am   BACKBONE|DICT|INTERRES
   118   59  122 1    
   119   60   61 2    
   120   60   62 1    
   121   62   63 1    
   122   62   64 1    
   123   62  123 1    
   124   63  124 1    
   125   63  125 1    
   126   63  126 1    
   127   64   65 am   BACKBONE|DICT|INTERRES
   128   64  127 1    
   129   65   66 2    
@<TRIPOS>SUBSTRUCTURE
     1 UNK         1 GROUP             0       ****    0 ROOT    
