@<TRIPOS>MOLECULE
3R134
127   129    1
SMALL
USER_CHARGES


@<TRIPOS>ATOM
      1 CA         35.6853  -42.6547  -51.5538 C.3       0 UNK        -0.1968 
      2 C          34.5973  -43.6751  -51.2511 C.2       0 UNK         0.4852 
      3 O          34.3823  -44.0014  -50.0834 O.2       0 UNK        -0.5359 
      4 N          33.9175  -44.1686  -52.2963 N.am      1 UNK        -0.4300 
      5 CA         32.8490  -45.1731  -52.2575 C.3       1 UNK         0.0863 
      6 C6         31.5674  -44.6783  -51.5327 C.3       11 UNK        -0.0953 
      7 S7         30.1044  -45.6731  -51.9877 S.3       11 UNK        -0.2369 
      8 C8         29.0290  -44.4499  -52.8033 C.3       11 UNK         0.0226 
      9 C9         29.5769  -43.9228  -54.1266 C.ar      11 UNK        -0.0699 
     10 C10        30.0761  -44.7915  -55.1035 C.ar      11 UNK        -0.0804 
     11 C11        30.5264  -44.3057  -56.3364 C.ar      11 UNK        -0.0871 
     12 C12        30.4622  -42.9343  -56.5902 C.ar      11 UNK        -0.1008 
     13 C13        29.9224  -42.0617  -55.6432 C.ar      11 UNK        -0.0735 
     14 C14        29.5025  -42.5565  -54.4064 C.ar      11 UNK        -0.0945 
     15 C15        29.7360  -40.5922  -55.9764 C.3       11 UNK         0.0169 
     16 S16        28.0034  -40.2377  -56.4169 S.3       11 UNK        -0.2669 
     17 C17        27.8076  -41.1124  -58.0103 C.3       11 UNK        -0.0850 
     18 CA         26.6654  -42.1635  -57.9883 C.3       10 UNK         0.0855 
     19 C          26.3494  -42.6537  -59.4273 C.2       10 UNK         0.5543 
     20 N          25.4137  -42.0100  -60.1110 N.am      10 UNK        -0.7343 
     21 O          26.9756  -43.5785  -59.9420 O.2       10 UNK        -0.5027 
     22 N          26.9480  -43.3020  -57.0970 N.am      10 UNK        -0.4495 
     23 C          25.9951  -44.1035  -56.6026 C.2       10 UNK         0.4903 
     24 O          24.7895  -43.8637  -56.6984 O.2       10 UNK        -0.4860 
     25 CA         26.4676  -45.3874  -55.8899 C.3       9 UNK         0.0227 
     26 CB         25.4872  -45.8381  -54.7887 C.3       9 UNK        -0.1964 
     27 N          26.7441  -46.4973  -56.8147 N.am      9 UNK        -0.4231 
     28 C          25.9216  -47.0373  -57.7318 C.2       9 UNK         0.5014 
     29 O          24.7638  -46.6750  -57.9400 O.2       9 UNK        -0.5270 
     30 CA         26.4800  -48.2148  -58.5445 C.3       8 UNK         0.0284 
     31 CB         27.5851  -47.7491  -59.5096 C.3       8 UNK        -0.1977 
     32 N          26.9989  -49.2542  -57.6549 N.am      8 UNK        -0.4342 
     33 C          26.3160  -50.3351  -57.2510 C.2       8 UNK         0.5039 
     34 O          25.1876  -50.6216  -57.6537 O.2       8 UNK        -0.5547 
     35 CA         26.9978  -51.2655  -56.2261 C.3       7 UNK         0.0281 
     36 CB         27.7199  -52.4180  -56.9426 C.3       7 UNK        -0.1963 
     37 N          27.9517  -50.5738  -55.3576 N.am      7 UNK        -0.4444 
     38 C          27.6276  -49.6517  -54.4411 C.2       7 UNK         0.5104 
     39 O          26.4697  -49.3814  -54.1238 O.2       7 UNK        -0.5100 
     40 CA         28.7872  -48.8702  -53.7941 C.3       6 UNK         0.0396 
     41 CB         29.0924  -49.4223  -52.3935 C.3       6 UNK        -0.1801 
     42 N          30.0286  -48.8497  -54.5775 N.am      6 UNK        -0.4747 
     43 C          30.1699  -48.3918  -55.8294 C.2       6 UNK         0.5012 
     44 O          29.2314  -47.9658  -56.5018 O.2       6 UNK        -0.5003 
     45 CA         31.5891  -48.4343  -56.4269 C.3       5 UNK         0.0782 
     46 C46        32.4510  -47.2363  -55.9320 C.3       11 UNK        -0.0868 
     47 S47        32.6803  -45.9053  -57.1586 S.3       11 UNK        -0.2515 
     48 C48        31.0044  -45.2470  -57.4358 C.3       11 UNK         0.0199 
     49 N          32.2195  -49.7164  -56.1094 N.am      5 UNK        -0.4607 
     50 C          31.9715  -50.8759  -56.7309 C.2       4 UNK         0.5031 
     51 O          31.2199  -50.9827  -57.6992 O.2       4 UNK        -0.5119 
     52 CA         32.6748  -52.1295  -56.1773 C.3       4 UNK         0.0263 
     53 CB         33.9706  -52.4031  -56.9575 C.3       4 UNK        -0.1967 
     54 N          32.9838  -52.0311  -54.7468 N.am      4 UNK        -0.4237 
     55 C          32.0682  -52.1022  -53.7699 C.2       3 UNK         0.4908 
     56 O          30.8738  -52.3268  -53.9678 O.2       3 UNK        -0.5102 
     57 CA         32.5597  -51.8368  -52.3326 C.3       3 UNK         0.0241 
     58 CB         33.0594  -53.1393  -51.6871 C.3       3 UNK        -0.1971 
     59 N          33.5970  -50.7991  -52.2131 N.am      3 UNK        -0.4139 
     60 C          33.4713  -49.5392  -52.6530 C.2       2 UNK         0.5016 
     61 O          32.4956  -49.1437  -53.2924 O.2       2 UNK        -0.5319 
     62 CA         34.6421  -48.5728  -52.3898 C.3       2 UNK         0.0286 
     63 CB         35.8011  -48.8618  -53.3584 C.3       2 UNK        -0.1963 
     64 N          34.2264  -47.1751  -52.5606 N.am      2 UNK        -0.4790 
     65 C          33.3707  -46.5377  -51.7481 C.2       1 UNK         0.5024 
     66 O          33.0103  -46.9875  -50.6576 O.2       1 UNK        -0.4888 
     67 H67        35.7680  -42.4479  -52.6207 H         1 UNK         0.0892 
     68 H68        35.4714  -41.7161  -51.0432 H         1 UNK         0.0892 
     69 H69        36.6503  -43.0206  -51.2041 H         1 UNK         0.0892 
     70 H70        34.1619  -43.8464  -53.2226 H         1 UNK         0.3107 
     71 H71        32.5780  -45.3196  -53.3033 H         1 UNK         0.0773 
     72 H72        31.6895  -44.6955  -50.4485 H         1 UNK         0.0680 
     73 H73        31.3751  -43.6365  -51.7933 H         1 UNK         0.0680 
     74 H74        28.8453  -43.6318  -52.1051 H         1 UNK         0.0650 
     75 H75        28.0611  -44.9158  -52.9908 H         1 UNK         0.0650 
     76 H76        30.0815  -45.8489  -54.9005 H         1 UNK         0.1397 
     77 H77        30.7908  -42.5492  -57.5460 H         1 UNK         0.1363 
     78 H78        29.0779  -41.8780  -53.6789 H         1 UNK         0.1355 
     79 H79        30.0156  -39.9841  -55.1148 H         1 UNK         0.0707 
     80 H80        30.3927  -40.2879  -56.7931 H         1 UNK         0.0707 
     81 H81        27.5974  -40.3465  -58.7596 H         1 UNK         0.1034 
     82 H82        28.7470  -41.5697  -58.3207 H         1 UNK         0.1034 
     83 H83        25.7738  -41.6581  -57.6104 H         1 UNK         0.0482 
     84 H84        24.9006  -41.2448  -59.7009 H         1 UNK         0.3460 
     85 H85        25.2065  -42.3031  -61.0531 H         1 UNK         0.3460 
     86 H86        27.9201  -43.5471  -56.9766 H         1 UNK         0.2989 
     87 H87        27.4100  -45.1549  -55.4006 H         1 UNK         0.0559 
     88 H88        24.5244  -46.1429  -55.2001 H         1 UNK         0.0848 
     89 H89        25.2979  -45.0302  -54.0809 H         1 UNK         0.0848 
     90 H90        25.8885  -46.6779  -54.2219 H         1 UNK         0.0848 
     91 H91        27.6742  -46.9010  -56.7389 H         1 UNK         0.3144 
     92 H92        25.6663  -48.6209  -59.1496 H         1 UNK         0.0727 
     93 H93        27.9333  -48.5713  -60.1349 H         1 UNK         0.0790 
     94 H94        27.2142  -46.9691  -60.1762 H         1 UNK         0.0790 
     95 H95        28.4495  -47.3417  -58.9852 H         1 UNK         0.0790 
     96 H96        27.9015  -49.0622  -57.2294 H         1 UNK         0.3215 
     97 H97        26.2141  -51.6894  -55.5944 H         1 UNK         0.0863 
     98 H98        28.1501  -53.1219  -56.2297 H         1 UNK         0.0808 
     99 H99        28.5252  -52.0541  -57.5825 H         1 UNK         0.0808 
    100 H100       27.0290  -52.9782  -57.5743 H         1 UNK         0.0808 
    101 H101       28.9335  -50.7511  -55.5173 H         1 UNK         0.3118 
    102 H102       28.4576  -47.8346  -53.6894 H         1 UNK         0.0546 
    103 H103       29.8717  -48.8420  -51.8984 H         1 UNK         0.0828 
    104 H104       29.4233  -50.4603  -52.4353 H         1 UNK         0.0828 
    105 H105       28.2072  -49.3856  -51.7573 H         1 UNK         0.0828 
    106 H106       30.8768  -49.1218  -54.0808 H         1 UNK         0.3005 
    107 H107       31.4868  -48.3783  -57.5133 H         1 UNK         0.1257 
    108 H108       33.4602  -47.5800  -55.6997 H         1 UNK         0.0775 
    109 H109       32.0923  -46.8187  -54.9920 H         1 UNK         0.0775 
    110 H110       31.0241  -44.7142  -58.3878 H         1 UNK         0.0840 
    111 H111       30.2888  -46.0487  -57.5903 H         1 UNK         0.0840 
    112 H112       32.7683  -49.7315  -55.2594 H         1 UNK         0.2987 
    113 H113       32.0009  -52.9763  -56.3261 H         1 UNK         0.0785 
    114 H114       33.7681  -52.5079  -58.0244 H         1 UNK         0.0798 
    115 H115       34.4449  -53.3277  -56.6278 H         1 UNK         0.0798 
    116 H116       34.6926  -51.5937  -56.8411 H         1 UNK         0.0798 
    117 H117       33.9456  -51.8561  -54.4941 H         1 UNK         0.3079 
    118 H118       31.6963  -51.4881  -51.7623 H         1 UNK         0.0794 
    119 H119       33.2931  -52.9959  -50.6319 H         1 UNK         0.0786 
    120 H120       33.9544  -53.5190  -52.1816 H         1 UNK         0.0786 
    121 H121       32.2994  -53.9201  -51.7440 H         1 UNK         0.0786 
    122 H122       34.4360  -51.0577  -51.7134 H         1 UNK         0.3032 
    123 H123       34.9842  -48.7130  -51.3619 H         1 UNK         0.1094 
    124 H124       35.4966  -48.7516  -54.4002 H         1 UNK         0.0794 
    125 H125       36.6407  -48.1889  -53.1826 H         1 UNK         0.0794 
    126 H126       36.1765  -49.8785  -53.2347 H         1 UNK         0.0794 
    127 H127       34.4854  -46.7335  -53.4301 H         1 UNK         0.3016 
@<TRIPOS>BOND
     1    1    2 1    
     2    1   67 1    
     3    1   68 1    
     4    1   69 1    
     5    2    3 2    
     6    2    4 am   BACKBONE|DICT|INTERRES
     7    4    5 1    
     8    4   70 1    
     9    5    6 1    
    10    5   65 1    
    11    5   71 1    
    12    6    7 1    
    13    6   72 1    
    14    6   73 1    
    15    7    8 1    
    16    8    9 1    
    17    8   74 1    
    18    8   75 1    
    19    9   10 ar   
    20    9   14 ar   
    21   10   11 ar   
    22   10   76 1    
    23   11   12 ar   
    24   11   48 1    
    25   12   13 ar   
    26   12   77 1    
    27   13   14 ar   
    28   13   15 1    
    29   14   78 1    
    30   15   16 1    
    31   15   79 1    
    32   15   80 1    
    33   16   17 1    
    34   17   18 1    
    35   17   81 1    
    36   17   82 1    
    37   18   19 1    
    38   18   22 1    
    39   18   83 1    
    40   19   20 am   BACKBONE|DICT|INTERRES
    41   19   21 2    
    42   20   84 1    
    43   20   85 1    
    44   22   23 am   BACKBONE|DICT|INTERRES
    45   22   86 1    
    46   23   24 2    
    47   23   25 1    
    48   25   26 1    
    49   25   27 1    
    50   25   87 1    
    51   26   88 1    
    52   26   89 1    
    53   26   90 1    
    54   27   28 am   BACKBONE|DICT|INTERRES
    55   27   91 1    
    56   28   29 2    
    57   28   30 1    
    58   30   31 1    
    59   30   32 1    
    60   30   92 1    
    61   31   93 1    
    62   31   94 1    
    63   31   95 1    
    64   32   33 am   BACKBONE|DICT|INTERRES
    65   32   96 1    
    66   33   34 2    
    67   33   35 1    
    68   35   36 1    
    69   35   37 1    
    70   35   97 1    
    71   36   98 1    
    72   36   99 1    
    73   36  100 1    
    74   37   38 am   BACKBONE|DICT|INTERRES
    75   37  101 1    
    76   38   39 2    
    77   38   40 1    
    78   40   41 1    
    79   40   42 1    
    80   40  102 1    
    81   41  103 1    
    82   41  104 1    
    83   41  105 1    
    84   42   43 am   BACKBONE|DICT|INTERRES
    85   42  106 1    
    86   43   44 2    
    87   43   45 1    
    88   45   46 1    
    89   45   49 1    
    90   45  107 1    
    91   46   47 1    
    92   46  108 1    
    93   46  109 1    
    94   47   48 1    
    95   48  110 1    
    96   48  111 1    
    97   49   50 am   BACKBONE|DICT|INTERRES
    98   49  112 1    
    99   50   51 2    
   100   50   52 1    
   101   52   53 1    
   102   52   54 1    
   103   52  113 1    
   104   53  114 1    
   105   53  115 1    
   106   53  116 1    
   107   54   55 am   BACKBONE|DICT|INTERRES
   108   54  117 1    
   109   55   56 2    
   110   55   57 1    
   111   57   58 1    
   112   57   59 1    
   113   57  118 1    
   114   58  119 1    
   115   58  120 1    
   116   58  121 1    
   117   59   60 am   BACKBONE|DICT|INTERRES
   118   59  122 1    
   119   60   61 2    
   120   60   62 1    
   121   62   63 1    
   122   62   64 1    
   123   62  123 1    
   124   63  124 1    
   125   63  125 1    
   126   63  126 1    
   127   64   65 am   BACKBONE|DICT|INTERRES
   128   64  127 1    
   129   65   66 2    
@<TRIPOS>SUBSTRUCTURE
     1 UNK         1 GROUP             0       ****    0 ROOT    
