@<TRIPOS>MOLECULE
3R134
127   129    1
SMALL
USER_CHARGES


@<TRIPOS>ATOM
      1 CA         37.8791  -43.3231  -52.0688 C.3       0 UNK        -0.1968 
      2 C          37.3469  -44.6915  -52.4688 C.2       0 UNK         0.4852 
      3 O          38.0834  -45.6774  -52.4028 O.2       0 UNK        -0.5359 
      4 N          36.0776  -44.7568  -52.8895 N.am      1 UNK        -0.4300 
      5 CA         35.3829  -45.9929  -53.2613 C.3       1 UNK         0.0863 
      6 C6         34.0860  -45.7194  -54.0634 C.3       11 UNK        -0.0953 
      7 S7         34.3446  -44.7562  -55.5935 S.3       11 UNK        -0.2369 
      8 C8         33.7436  -43.0953  -55.1329 C.3       11 UNK         0.0226 
      9 C9         32.2254  -43.0343  -55.0218 C.ar      11 UNK        -0.0699 
     10 C10        31.6017  -43.2800  -53.7956 C.ar      11 UNK        -0.0804 
     11 C11        30.2105  -43.2697  -53.6879 C.ar      11 UNK        -0.0871 
     12 C12        29.4375  -42.9406  -54.8040 C.ar      11 UNK        -0.1008 
     13 C13        30.0486  -42.6475  -56.0269 C.ar      11 UNK        -0.0735 
     14 C14        31.4422  -42.7135  -56.1362 C.ar      11 UNK        -0.0945 
     15 C15        29.1953  -42.2441  -57.2180 C.3       11 UNK         0.0169 
     16 S16        28.6239  -43.6983  -58.1427 S.3       11 UNK        -0.2669 
     17 C17        27.2228  -42.9793  -59.0687 C.3       11 UNK        -0.0850 
     18 CA         25.8625  -43.2119  -58.3572 C.3       10 UNK         0.0855 
     19 C          24.7060  -42.4785  -59.0958 C.2       10 UNK         0.5543 
     20 N          23.6843  -43.1690  -59.5873 N.am      10 UNK        -0.7343 
     21 O          24.7346  -41.2564  -59.2177 O.2       10 UNK        -0.5027 
     22 N          25.6246  -44.6436  -58.1245 N.am      10 UNK        -0.4495 
     23 C          24.8746  -45.1736  -57.1539 C.2       10 UNK         0.4903 
     24 O          24.2374  -44.5014  -56.3426 O.2       10 UNK        -0.4860 
     25 CA         24.8403  -46.7115  -57.0389 C.3       9 UNK         0.0227 
     26 CB         23.5308  -47.2878  -57.6120 C.3       9 UNK        -0.1964 
     27 N          26.0211  -47.4022  -57.5840 N.am      9 UNK        -0.4231 
     28 C          26.4156  -47.5200  -58.8617 C.2       9 UNK         0.5014 
     29 O          25.8088  -47.0287  -59.8138 O.2       9 UNK        -0.5270 
     30 CA         27.7351  -48.2597  -59.1297 C.3       8 UNK         0.0284 
     31 CB         28.9017  -47.2609  -59.1758 C.3       8 UNK        -0.1977 
     32 N          28.0187  -49.3064  -58.1448 N.am      8 UNK        -0.4342 
     33 C          27.4103  -50.5018  -58.1339 C.2       8 UNK         0.5039 
     34 O          26.5685  -50.8485  -58.9639 O.2       8 UNK        -0.5547 
     35 CA         27.8006  -51.4804  -57.0136 C.3       7 UNK         0.0281 
     36 CB         29.1462  -52.1546  -57.3225 C.3       7 UNK        -0.1963 
     37 N          27.8498  -50.8468  -55.6948 N.am      7 UNK        -0.4444 
     38 C          26.7778  -50.3709  -55.0452 C.2       7 UNK         0.5104 
     39 O          25.6262  -50.4334  -55.4758 O.2       7 UNK        -0.5100 
     40 CA         27.0330  -49.6978  -53.6871 C.3       6 UNK         0.0396 
     41 CB         27.0860  -50.7431  -52.5617 C.3       6 UNK        -0.1801 
     42 N          28.2569  -48.8953  -53.6703 N.am      6 UNK        -0.4747 
     43 C          28.4396  -47.7722  -54.3801 C.2       6 UNK         0.5012 
     44 O          27.5990  -47.3037  -55.1482 O.2       6 UNK        -0.5003 
     45 CA         29.8172  -47.0883  -54.2349 C.3       5 UNK         0.0782 
     46 C46        29.9908  -46.4126  -52.8453 C.3       11 UNK        -0.0868 
     47 S47        28.6736  -45.2090  -52.4237 S.3       11 UNK        -0.2515 
     48 C48        29.5505  -43.6137  -52.3618 C.3       11 UNK         0.0199 
     49 N          30.8998  -48.0449  -54.5097 N.am      5 UNK        -0.4607 
     50 C          31.0586  -48.7041  -55.6715 C.2       4 UNK         0.5031 
     51 O          30.3602  -48.5130  -56.6645 O.2       4 UNK        -0.5119 
     52 CA         32.1253  -49.8143  -55.7374 C.3       4 UNK         0.0263 
     53 CB         33.4577  -49.2639  -56.2697 C.3       4 UNK        -0.1967 
     54 N          32.3494  -50.4976  -54.4638 N.am      4 UNK        -0.4237 
     55 C          31.4117  -51.1138  -53.7287 C.2       3 UNK         0.4908 
     56 O          30.2545  -51.2912  -54.1101 O.2       3 UNK        -0.5102 
     57 CA         31.8120  -51.5571  -52.3071 C.3       3 UNK         0.0241 
     58 CB         31.9939  -53.0823  -52.2551 C.3       3 UNK        -0.1971 
     59 N          33.0208  -50.9056  -51.7788 N.am      3 UNK        -0.4139 
     60 C          33.1955  -49.5841  -51.6191 C.2       2 UNK         0.5016 
     61 O          32.3296  -48.7503  -51.8972 O.2       2 UNK        -0.5319 
     62 CA         34.5797  -49.1003  -51.1476 C.3       2 UNK         0.0286 
     63 CB         35.6187  -50.2261  -50.9600 C.3       2 UNK        -0.1963 
     64 N          35.0890  -48.1450  -52.1334 N.am      2 UNK        -0.4790 
     65 C          35.0372  -46.8146  -52.0027 C.2       1 UNK         0.5024 
     66 O          34.6837  -46.2355  -50.9718 O.2       1 UNK        -0.4888 
     67 H67        38.7442  -43.0641  -52.6786 H         1 UNK         0.0892 
     68 H68        37.1305  -42.5410  -52.1940 H         1 UNK         0.0892 
     69 H69        38.1886  -43.3321  -51.0240 H         1 UNK         0.0892 
     70 H70        35.5131  -43.9213  -52.8929 H         1 UNK         0.3107 
     71 H71        36.0565  -46.5810  -53.8888 H         1 UNK         0.0773 
     72 H72        33.6180  -46.6597  -54.3550 H         1 UNK         0.0680 
     73 H73        33.3543  -45.2280  -53.4293 H         1 UNK         0.0680 
     74 H74        34.0830  -42.3838  -55.8870 H         1 UNK         0.0650 
     75 H75        34.2061  -42.7826  -54.1961 H         1 UNK         0.0650 
     76 H76        32.1972  -43.4933  -52.9197 H         1 UNK         0.1397 
     77 H77        28.3592  -42.9167  -54.7212 H         1 UNK         0.1363 
     78 H78        31.9171  -42.5062  -57.0854 H         1 UNK         0.1355 
     79 H79        29.7548  -41.5871  -57.8858 H         1 UNK         0.0707 
     80 H80        28.3350  -41.6701  -56.8696 H         1 UNK         0.0707 
     81 H81        27.2083  -43.4254  -60.0648 H         1 UNK         0.1034 
     82 H82        27.4055  -41.9137  -59.2222 H         1 UNK         0.1034 
     83 H83        25.9280  -42.7336  -57.3780 H         1 UNK         0.0482 
     84 H84        22.9382  -42.6837  -60.0603 H         1 UNK         0.3460 
     85 H85        23.6569  -44.1714  -59.4903 H         1 UNK         0.3460 
     86 H86        26.0476  -45.2816  -58.7871 H         1 UNK         0.2989 
     87 H87        24.8522  -46.9344  -55.9708 H         1 UNK         0.0559 
     88 H88        23.4226  -47.0817  -58.6770 H         1 UNK         0.0848 
     89 H89        22.6644  -46.8548  -57.1105 H         1 UNK         0.0848 
     90 H90        23.4803  -48.3676  -57.4716 H         1 UNK         0.0848 
     91 H91        26.6587  -47.7399  -56.8687 H         1 UNK         0.3144 
     92 H92        27.6562  -48.7260  -60.1142 H         1 UNK         0.0727 
     93 H93        29.8408  -47.7567  -59.4213 H         1 UNK         0.0790 
     94 H94        29.0325  -46.7519  -58.2198 H         1 UNK         0.0790 
     95 H95        28.7316  -46.4932  -59.9320 H         1 UNK         0.0790 
     96 H96        28.7416  -49.1002  -57.4577 H         1 UNK         0.3215 
     97 H97        27.0369  -52.2603  -56.9731 H         1 UNK         0.0863 
     98 H98        29.4445  -52.8378  -56.5269 H         1 UNK         0.0808 
     99 H99        29.9410  -51.4223  -57.4552 H         1 UNK         0.0808 
    100 H100       29.0852  -52.7346  -58.2443 H         1 UNK         0.0808 
    101 H101       28.7509  -50.8148  -55.2240 H         1 UNK         0.3118 
    102 H102       26.1940  -49.0278  -53.4870 H         1 UNK         0.0546 
    103 H103       26.1697  -51.3346  -52.5373 H         1 UNK         0.0828 
    104 H104       27.1908  -50.2706  -51.5850 H         1 UNK         0.0828 
    105 H105       27.9171  -51.4375  -52.6903 H         1 UNK         0.0828 
    106 H106       29.0239  -49.2464  -53.1150 H         1 UNK         0.3005 
    107 H107       29.8704  -46.3075  -54.9981 H         1 UNK         0.1257 
    108 H108       30.9620  -45.9199  -52.7939 H         1 UNK         0.0775 
    109 H109       30.0091  -47.1686  -52.0582 H         1 UNK         0.0775 
    110 H110       28.8388  -42.8292  -52.1007 H         1 UNK         0.0840 
    111 H111       30.2827  -43.6418  -51.5532 H         1 UNK         0.0840 
    112 H112       31.4909  -48.2885  -53.7213 H         1 UNK         0.2987 
    113 H113       31.7707  -50.5641  -56.4447 H         1 UNK         0.0785 
    114 H114       33.9275  -48.5784  -55.5660 H         1 UNK         0.0798 
    115 H115       33.3109  -48.7215  -57.2051 H         1 UNK         0.0798 
    116 H116       34.1640  -50.0689  -56.4734 H         1 UNK         0.0798 
    117 H117       33.2741  -50.4223  -54.0690 H         1 UNK         0.3079 
    118 H118       30.9835  -51.2882  -51.6486 H         1 UNK         0.0794 
    119 H119       32.8289  -53.4111  -52.8753 H         1 UNK         0.0786 
    120 H120       31.1000  -53.5950  -52.6141 H         1 UNK         0.0786 
    121 H121       32.1739  -53.4271  -51.2366 H         1 UNK         0.0786 
    122 H122       33.7872  -51.5166  -51.5349 H         1 UNK         0.3032 
    123 H123       34.4300  -48.6145  -50.1805 H         1 UNK         0.1094 
    124 H124       36.5711  -49.8187  -50.6195 H         1 UNK         0.0794 
    125 H125       35.2980  -50.9431  -50.2028 H         1 UNK         0.0794 
    126 H126       35.8115  -50.7719  -51.8847 H         1 UNK         0.0794 
    127 H127       35.3833  -48.5308  -53.0192 H         1 UNK         0.3016 
@<TRIPOS>BOND
     1    1    2 1    
     2    1   67 1    
     3    1   68 1    
     4    1   69 1    
     5    2    3 2    
     6    2    4 am   BACKBONE|DICT|INTERRES
     7    4    5 1    
     8    4   70 1    
     9    5    6 1    
    10    5   65 1    
    11    5   71 1    
    12    6    7 1    
    13    6   72 1    
    14    6   73 1    
    15    7    8 1    
    16    8    9 1    
    17    8   74 1    
    18    8   75 1    
    19    9   10 ar   
    20    9   14 ar   
    21   10   11 ar   
    22   10   76 1    
    23   11   12 ar   
    24   11   48 1    
    25   12   13 ar   
    26   12   77 1    
    27   13   14 ar   
    28   13   15 1    
    29   14   78 1    
    30   15   16 1    
    31   15   79 1    
    32   15   80 1    
    33   16   17 1    
    34   17   18 1    
    35   17   81 1    
    36   17   82 1    
    37   18   19 1    
    38   18   22 1    
    39   18   83 1    
    40   19   20 am   BACKBONE|DICT|INTERRES
    41   19   21 2    
    42   20   84 1    
    43   20   85 1    
    44   22   23 am   BACKBONE|DICT|INTERRES
    45   22   86 1    
    46   23   24 2    
    47   23   25 1    
    48   25   26 1    
    49   25   27 1    
    50   25   87 1    
    51   26   88 1    
    52   26   89 1    
    53   26   90 1    
    54   27   28 am   BACKBONE|DICT|INTERRES
    55   27   91 1    
    56   28   29 2    
    57   28   30 1    
    58   30   31 1    
    59   30   32 1    
    60   30   92 1    
    61   31   93 1    
    62   31   94 1    
    63   31   95 1    
    64   32   33 am   BACKBONE|DICT|INTERRES
    65   32   96 1    
    66   33   34 2    
    67   33   35 1    
    68   35   36 1    
    69   35   37 1    
    70   35   97 1    
    71   36   98 1    
    72   36   99 1    
    73   36  100 1    
    74   37   38 am   BACKBONE|DICT|INTERRES
    75   37  101 1    
    76   38   39 2    
    77   38   40 1    
    78   40   41 1    
    79   40   42 1    
    80   40  102 1    
    81   41  103 1    
    82   41  104 1    
    83   41  105 1    
    84   42   43 am   BACKBONE|DICT|INTERRES
    85   42  106 1    
    86   43   44 2    
    87   43   45 1    
    88   45   46 1    
    89   45   49 1    
    90   45  107 1    
    91   46   47 1    
    92   46  108 1    
    93   46  109 1    
    94   47   48 1    
    95   48  110 1    
    96   48  111 1    
    97   49   50 am   BACKBONE|DICT|INTERRES
    98   49  112 1    
    99   50   51 2    
   100   50   52 1    
   101   52   53 1    
   102   52   54 1    
   103   52  113 1    
   104   53  114 1    
   105   53  115 1    
   106   53  116 1    
   107   54   55 am   BACKBONE|DICT|INTERRES
   108   54  117 1    
   109   55   56 2    
   110   55   57 1    
   111   57   58 1    
   112   57   59 1    
   113   57  118 1    
   114   58  119 1    
   115   58  120 1    
   116   58  121 1    
   117   59   60 am   BACKBONE|DICT|INTERRES
   118   59  122 1    
   119   60   61 2    
   120   60   62 1    
   121   62   63 1    
   122   62   64 1    
   123   62  123 1    
   124   63  124 1    
   125   63  125 1    
   126   63  126 1    
   127   64   65 am   BACKBONE|DICT|INTERRES
   128   64  127 1    
   129   65   66 2    
@<TRIPOS>SUBSTRUCTURE
     1 UNK         1 GROUP             0       ****    0 ROOT    
