@<TRIPOS>MOLECULE
3R134
127   129    1
SMALL
USER_CHARGES


@<TRIPOS>ATOM
      1 CA         35.3810  -45.3386  -52.6064 C.3       0 UNK        -0.1968 
      2 C          35.3383  -45.5938  -54.1059 C.2       0 UNK         0.4852 
      3 O          36.3539  -45.9679  -54.6936 O.2       0 UNK        -0.5359 
      4 N          34.1674  -45.3972  -54.7256 N.am      1 UNK        -0.4300 
      5 CA         33.9169  -45.6368  -56.1522 C.3       1 UNK         0.0863 
      6 C6         32.6341  -44.9072  -56.6231 C.3       11 UNK        -0.0953 
      7 S7         32.8758  -43.1202  -56.8959 S.3       11 UNK        -0.2369 
      8 C8         32.6730  -42.3852  -55.2386 C.3       11 UNK         0.0226 
      9 C9         31.3411  -42.7212  -54.5800 C.ar      11 UNK        -0.0699 
     10 C10        31.3168  -43.3873  -53.3517 C.ar      11 UNK        -0.0804 
     11 C11        30.1032  -43.6867  -52.7267 C.ar      11 UNK        -0.0871 
     12 C12        28.9047  -43.2985  -53.3328 C.ar      11 UNK        -0.1008 
     13 C13        28.9123  -42.6242  -54.5597 C.ar      11 UNK        -0.0735 
     14 C14        30.1356  -42.3370  -55.1753 C.ar      11 UNK        -0.0945 
     15 C15        27.6127  -42.1666  -55.2117 C.3       11 UNK         0.0169 
     16 S16        26.3485  -43.4774  -55.2957 S.3       11 UNK        -0.2669 
     17 C17        25.0863  -42.6526  -56.3299 C.3       11 UNK        -0.0850 
     18 CA         24.7369  -43.4432  -57.6253 C.3       10 UNK         0.0855 
     19 C          23.6217  -42.7482  -58.4640 C.2       10 UNK         0.5543 
     20 N          23.6416  -42.8332  -59.7886 N.am      10 UNK        -0.7343 
     21 O          22.7053  -42.1475  -57.9076 O.2       10 UNK        -0.5027 
     22 N          25.9202  -43.8636  -58.3970 N.am      10 UNK        -0.4495 
     23 C          26.8517  -43.0778  -58.9478 C.2       10 UNK         0.4903 
     24 O          26.8213  -41.8467  -58.9105 O.2       10 UNK        -0.4860 
     25 CA         28.0232  -43.8048  -59.6437 C.3       9 UNK         0.0227 
     26 CB         29.0433  -42.8266  -60.2566 C.3       9 UNK        -0.1964 
     27 N          28.7342  -44.7225  -58.7456 N.am      9 UNK        -0.4231 
     28 C          28.2900  -45.9142  -58.3231 C.2       9 UNK         0.5014 
     29 O          27.1961  -46.3897  -58.6432 O.2       9 UNK        -0.5270 
     30 CA         29.2086  -46.6688  -57.3465 C.3       8 UNK         0.0284 
     31 CB         29.1510  -46.0291  -55.9520 C.3       8 UNK        -0.1977 
     32 N          28.8527  -48.0837  -57.2312 N.am      8 UNK        -0.4342 
     33 C          29.0880  -49.0058  -58.1754 C.2       8 UNK         0.5039 
     34 O          29.6967  -48.7676  -59.2201 O.2       8 UNK        -0.5547 
     35 CA         28.5891  -50.4341  -57.8913 C.3       7 UNK         0.0281 
     36 CB         29.3984  -51.5073  -58.6449 C.3       7 UNK        -0.1963 
     37 N          28.6284  -50.7213  -56.4560 N.am      7 UNK        -0.4444 
     38 C          27.6036  -51.1681  -55.7224 C.2       7 UNK         0.5104 
     39 O          26.4935  -51.4397  -56.1808 O.2       7 UNK        -0.5100 
     40 CA         27.8559  -51.3335  -54.2128 C.3       6 UNK         0.0396 
     41 CB         28.2137  -52.7923  -53.8893 C.3       6 UNK        -0.1801 
     42 N          28.8929  -50.4488  -53.6641 N.am      6 UNK        -0.4747 
     43 C          28.7967  -49.1096  -53.5820 C.2       6 UNK         0.5012 
     44 O          27.8738  -48.4774  -54.0963 O.2       6 UNK        -0.5003 
     45 CA         29.9178  -48.3491  -52.8288 C.3       5 UNK         0.0782 
     46 C46        29.4306  -47.0136  -52.2008 C.3       11 UNK        -0.0868 
     47 S47        30.8074  -46.0655  -51.4683 S.3       11 UNK        -0.2515 
     48 C48        30.0959  -44.3919  -51.3772 C.3       11 UNK         0.0199 
     49 N          30.6487  -49.2058  -51.8862 N.am      5 UNK        -0.4607 
     50 C          30.1601  -49.8329  -50.8046 C.2       4 UNK         0.5031 
     51 O          29.0066  -49.6897  -50.3973 O.2       4 UNK        -0.5119 
     52 CA         31.1086  -50.8086  -50.0692 C.3       4 UNK         0.0263 
     53 CB         30.3548  -52.0303  -49.5011 C.3       4 UNK        -0.1967 
     54 N          32.2628  -51.2461  -50.8717 N.am      4 UNK        -0.4237 
     55 C          32.2313  -51.8784  -52.0547 C.2       3 UNK         0.4908 
     56 O          31.1986  -52.2327  -52.6277 O.2       3 UNK        -0.5102 
     57 CA         33.5827  -52.0565  -52.7662 C.3       3 UNK         0.0241 
     58 CB         33.8670  -53.5426  -53.0403 C.3       3 UNK        -0.1971 
     59 N          33.6151  -51.3113  -54.0293 N.am      3 UNK        -0.4139 
     60 C          33.4320  -49.9887  -54.1468 C.2       2 UNK         0.5016 
     61 O          33.2656  -49.2258  -53.1888 O.2       2 UNK        -0.5319 
     62 CA         33.3795  -49.4252  -55.5708 C.3       2 UNK         0.0286 
     63 CB         32.0592  -49.8074  -56.2649 C.3       2 UNK        -0.1963 
     64 N          33.4925  -47.9730  -55.4868 N.am      2 UNK        -0.4790 
     65 C          33.8314  -47.1443  -56.4814 C.2       1 UNK         0.5024 
     66 O          34.0724  -47.5244  -57.6277 O.2       1 UNK        -0.4888 
     67 H67        36.0737  -44.5276  -52.3830 H         1 UNK         0.0892 
     68 H68        34.4027  -45.0702  -52.2078 H         1 UNK         0.0892 
     69 H69        35.7222  -46.2325  -52.0847 H         1 UNK         0.0892 
     70 H70        33.3675  -45.0961  -54.1903 H         1 UNK         0.3107 
     71 H71        34.7651  -45.2463  -56.7192 H         1 UNK         0.0773 
     72 H72        31.8127  -45.0736  -55.9272 H         1 UNK         0.0680 
     73 H73        32.2969  -45.3036  -57.5829 H         1 UNK         0.0680 
     74 H74        32.7506  -41.3013  -55.3321 H         1 UNK         0.0650 
     75 H75        33.5105  -42.6910  -54.6108 H         1 UNK         0.0650 
     76 H76        32.2420  -43.6660  -52.8675 H         1 UNK         0.1397 
     77 H77        27.9623  -43.5135  -52.8478 H         1 UNK         0.1363 
     78 H78        30.1553  -41.8082  -56.1186 H         1 UNK         0.1355 
     79 H79        27.2143  -41.3210  -54.6497 H         1 UNK         0.0707 
     80 H80        27.8076  -41.8063  -56.2230 H         1 UNK         0.0707 
     81 H81        24.1934  -42.5266  -55.7150 H         1 UNK         0.1034 
     82 H82        25.4125  -41.6426  -56.5836 H         1 UNK         0.1034 
     83 H83        24.2808  -44.3793  -57.3017 H         1 UNK         0.0482 
     84 H84        24.3820  -43.3329  -60.2541 H         1 UNK         0.3460 
     85 H85        22.9122  -42.3907  -60.3252 H         1 UNK         0.3460 
     86 H86        26.0668  -44.8670  -58.4702 H         1 UNK         0.2989 
     87 H87        27.5951  -44.3893  -60.4608 H         1 UNK         0.0559 
     88 H88        29.8277  -43.3562  -60.7977 H         1 UNK         0.0848 
     89 H89        29.5193  -42.2082  -59.4943 H         1 UNK         0.0848 
     90 H90        28.5620  -42.1538  -60.9678 H         1 UNK         0.0848 
     91 H91        29.6219  -44.3932  -58.3950 H         1 UNK         0.3144 
     92 H92        30.2318  -46.6033  -57.7215 H         1 UNK         0.0727 
     93 H93        28.1571  -46.1082  -55.5095 H         1 UNK         0.0790 
     94 H94        29.3970  -44.9694  -55.9954 H         1 UNK         0.0790 
     95 H95        29.8636  -46.4936  -55.2727 H         1 UNK         0.0790 
     96 H96        28.2952  -48.3435  -56.4275 H         1 UNK         0.3215 
     97 H97        27.5598  -50.4692  -58.2549 H         1 UNK         0.0863 
     98 H98        29.0215  -52.5080  -58.4335 H         1 UNK         0.0808 
     99 H99        30.4541  -51.4817  -58.3734 H         1 UNK         0.0808 
    100 H100       29.3347  -51.3616  -59.7240 H         1 UNK         0.0808 
    101 H101       29.4963  -50.5284  -55.9789 H         1 UNK         0.3118 
    102 H102       26.9209  -51.0953  -53.7016 H         1 UNK         0.0546 
    103 H103       29.1512  -53.0912  -54.3599 H         1 UNK         0.0828 
    104 H104       27.4388  -53.4740  -54.2425 H         1 UNK         0.0828 
    105 H105       28.3160  -52.9472  -52.8149 H         1 UNK         0.0828 
    106 H106       29.6852  -50.9089  -53.2251 H         1 UNK         0.3005 
    107 H107       30.6442  -48.0897  -53.5998 H         1 UNK         0.1257 
    108 H108       28.6799  -47.1962  -51.4305 H         1 UNK         0.0775 
    109 H109       28.9496  -46.3870  -52.9537 H         1 UNK         0.0775 
    110 H110       29.0870  -44.4492  -50.9655 H         1 UNK         0.0840 
    111 H111       30.6801  -43.8016  -50.6699 H         1 UNK         0.0840 
    112 H112       31.6241  -49.3574  -52.1282 H         1 UNK         0.2987 
    113 H113       31.5171  -50.2489  -49.2266 H         1 UNK         0.0785 
    114 H114       29.5894  -51.7234  -48.7873 H         1 UNK         0.0798 
    115 H115       31.0308  -52.7053  -48.9764 H         1 UNK         0.0798 
    116 H116       29.8559  -52.5987  -50.2868 H         1 UNK         0.0798 
    117 H117       33.1646  -50.9569  -50.5170 H         1 UNK         0.3079 
    118 H118       34.3793  -51.6672  -52.1287 H         1 UNK         0.0794 
    119 H119       33.8595  -54.1179  -52.1135 H         1 UNK         0.0786 
    120 H120       34.8458  -53.6827  -53.4994 H         1 UNK         0.0786 
    121 H121       33.1189  -53.9822  -53.7017 H         1 UNK         0.0786 
    122 H122       33.7143  -51.8636  -54.8687 H         1 UNK         0.3032 
    123 H123       34.2287  -49.8219  -56.1322 H         1 UNK         0.1094 
    124 H124       32.0400  -49.4582  -57.2976 H         1 UNK         0.0794 
    125 H125       31.9199  -50.8889  -56.2906 H         1 UNK         0.0794 
    126 H126       31.2029  -49.3722  -55.7510 H         1 UNK         0.0794 
    127 H127       33.3791  -47.6116  -54.5472 H         1 UNK         0.3016 
@<TRIPOS>BOND
     1    1    2 1    
     2    1   67 1    
     3    1   68 1    
     4    1   69 1    
     5    2    3 2    
     6    2    4 am   BACKBONE|DICT|INTERRES
     7    4    5 1    
     8    4   70 1    
     9    5    6 1    
    10    5   65 1    
    11    5   71 1    
    12    6    7 1    
    13    6   72 1    
    14    6   73 1    
    15    7    8 1    
    16    8    9 1    
    17    8   74 1    
    18    8   75 1    
    19    9   10 ar   
    20    9   14 ar   
    21   10   11 ar   
    22   10   76 1    
    23   11   12 ar   
    24   11   48 1    
    25   12   13 ar   
    26   12   77 1    
    27   13   14 ar   
    28   13   15 1    
    29   14   78 1    
    30   15   16 1    
    31   15   79 1    
    32   15   80 1    
    33   16   17 1    
    34   17   18 1    
    35   17   81 1    
    36   17   82 1    
    37   18   19 1    
    38   18   22 1    
    39   18   83 1    
    40   19   20 am   BACKBONE|DICT|INTERRES
    41   19   21 2    
    42   20   84 1    
    43   20   85 1    
    44   22   23 am   BACKBONE|DICT|INTERRES
    45   22   86 1    
    46   23   24 2    
    47   23   25 1    
    48   25   26 1    
    49   25   27 1    
    50   25   87 1    
    51   26   88 1    
    52   26   89 1    
    53   26   90 1    
    54   27   28 am   BACKBONE|DICT|INTERRES
    55   27   91 1    
    56   28   29 2    
    57   28   30 1    
    58   30   31 1    
    59   30   32 1    
    60   30   92 1    
    61   31   93 1    
    62   31   94 1    
    63   31   95 1    
    64   32   33 am   BACKBONE|DICT|INTERRES
    65   32   96 1    
    66   33   34 2    
    67   33   35 1    
    68   35   36 1    
    69   35   37 1    
    70   35   97 1    
    71   36   98 1    
    72   36   99 1    
    73   36  100 1    
    74   37   38 am   BACKBONE|DICT|INTERRES
    75   37  101 1    
    76   38   39 2    
    77   38   40 1    
    78   40   41 1    
    79   40   42 1    
    80   40  102 1    
    81   41  103 1    
    82   41  104 1    
    83   41  105 1    
    84   42   43 am   BACKBONE|DICT|INTERRES
    85   42  106 1    
    86   43   44 2    
    87   43   45 1    
    88   45   46 1    
    89   45   49 1    
    90   45  107 1    
    91   46   47 1    
    92   46  108 1    
    93   46  109 1    
    94   47   48 1    
    95   48  110 1    
    96   48  111 1    
    97   49   50 am   BACKBONE|DICT|INTERRES
    98   49  112 1    
    99   50   51 2    
   100   50   52 1    
   101   52   53 1    
   102   52   54 1    
   103   52  113 1    
   104   53  114 1    
   105   53  115 1    
   106   53  116 1    
   107   54   55 am   BACKBONE|DICT|INTERRES
   108   54  117 1    
   109   55   56 2    
   110   55   57 1    
   111   57   58 1    
   112   57   59 1    
   113   57  118 1    
   114   58  119 1    
   115   58  120 1    
   116   58  121 1    
   117   59   60 am   BACKBONE|DICT|INTERRES
   118   59  122 1    
   119   60   61 2    
   120   60   62 1    
   121   62   63 1    
   122   62   64 1    
   123   62  123 1    
   124   63  124 1    
   125   63  125 1    
   126   63  126 1    
   127   64   65 am   BACKBONE|DICT|INTERRES
   128   64  127 1    
   129   65   66 2    
@<TRIPOS>SUBSTRUCTURE
     1 UNK         1 GROUP             0       ****    0 ROOT    
