@<TRIPOS>MOLECULE
3R134
127   129    1
SMALL
USER_CHARGES


@<TRIPOS>ATOM
      1 CA         27.3915  -45.4404  -52.1910 C.3       0 UNK        -0.1968 
      2 C          28.7189  -45.1494  -51.5072 C.2       0 UNK         0.4852 
      3 O          28.7304  -44.7767  -50.3335 O.2       0 UNK        -0.5359 
      4 N          29.8266  -45.3026  -52.2430 N.am      1 UNK        -0.4300 
      5 CA         31.1918  -45.0664  -51.7708 C.3       1 UNK         0.0863 
      6 C6         32.0271  -44.3701  -52.8714 C.3       11 UNK        -0.0953 
      7 S7         33.6961  -43.8494  -52.3324 S.3       11 UNK        -0.2369 
      8 C8         33.9895  -42.3506  -53.3362 C.3       11 UNK         0.0226 
      9 C9         33.4997  -42.5133  -54.7687 C.ar      11 UNK        -0.0699 
     10 C10        34.0536  -43.4926  -55.5970 C.ar      11 UNK        -0.0804 
     11 C11        33.5165  -43.7337  -56.8643 C.ar      11 UNK        -0.0871 
     12 C12        32.4438  -42.9591  -57.3181 C.ar      11 UNK        -0.1008 
     13 C13        31.8801  -41.9802  -56.4954 C.ar      11 UNK        -0.0735 
     14 C14        32.4276  -41.7458  -55.2314 C.ar      11 UNK        -0.0945 
     15 C15        30.6410  -41.2183  -56.9429 C.3       11 UNK         0.0169 
     16 S16        29.2137  -41.5558  -55.8572 S.3       11 UNK        -0.2669 
     17 C17        28.9277  -43.3426  -56.1231 C.3       11 UNK        -0.0850 
     18 CA         27.5045  -43.6425  -56.6726 C.3       10 UNK         0.0855 
     19 C          27.4310  -43.5870  -58.2307 C.2       10 UNK         0.5543 
     20 N          26.7965  -44.5349  -58.9108 N.am      10 UNK        -0.7343 
     21 O          27.9523  -42.6598  -58.8440 O.2       10 UNK        -0.5027 
     22 N          26.9592  -44.8780  -56.0843 N.am      10 UNK        -0.4495 
     23 C          25.6602  -45.0964  -55.8415 C.2       10 UNK         0.4903 
     24 O          24.7812  -44.2480  -56.0028 O.2       10 UNK        -0.4860 
     25 CA         25.2860  -46.5156  -55.3675 C.3       9 UNK         0.0227 
     26 CB         23.7630  -46.7200  -55.2274 C.3       9 UNK        -0.1964 
     27 N          25.8653  -47.5725  -56.2068 N.am      9 UNK        -0.4231 
     28 C          25.7344  -47.7183  -57.5360 C.2       9 UNK         0.5014 
     29 O          25.1058  -46.9333  -58.2468 O.2       9 UNK        -0.5270 
     30 CA         26.4437  -48.9065  -58.2143 C.3       8 UNK         0.0284 
     31 CB         27.4859  -48.3953  -59.2243 C.3       8 UNK        -0.1977 
     32 N          27.0978  -49.8229  -57.2768 N.am      8 UNK        -0.4342 
     33 C          26.4710  -50.7507  -56.5414 C.2       8 UNK         0.5039 
     34 O          25.2639  -50.9822  -56.6141 O.2       8 UNK        -0.5547 
     35 CA         27.3291  -51.5142  -55.5156 C.3       7 UNK         0.0281 
     36 CB         28.0925  -52.6652  -56.1894 C.3       7 UNK        -0.1963 
     37 N          28.2708  -50.6533  -54.7891 N.am      7 UNK        -0.4444 
     38 C          27.9174  -49.6122  -54.0194 C.2       7 UNK         0.5104 
     39 O          26.7559  -49.2488  -53.8420 O.2       7 UNK        -0.5100 
     40 CA         29.0547  -48.8032  -53.3852 C.3       6 UNK         0.0396 
     41 CB         29.6359  -49.5371  -52.1674 C.3       6 UNK        -0.1801 
     42 N          30.0883  -48.5083  -54.3808 N.am      6 UNK        -0.4747 
     43 C          29.9838  -47.5207  -55.2843 C.2       6 UNK         0.5012 
     44 O          29.1342  -46.6307  -55.2085 O.2       6 UNK        -0.5003 
     45 CA         30.9425  -47.5302  -56.4934 C.3       5 UNK         0.0782 
     46 C46        31.9668  -46.3763  -56.4364 C.3       11 UNK        -0.0868 
     47 S47        32.7612  -46.1328  -58.0646 S.3       11 UNK        -0.2515 
     48 C48        34.0459  -44.8866  -57.7053 C.3       11 UNK         0.0199 
     49 N          31.5977  -48.8271  -56.6783 N.am      5 UNK        -0.4607 
     50 C          31.0210  -49.8817  -57.2665 C.2       4 UNK         0.5031 
     51 O          29.8705  -49.8707  -57.6971 O.2       4 UNK        -0.5119 
     52 CA         31.8384  -51.1820  -57.3464 C.3       4 UNK         0.0263 
     53 CB         32.6550  -51.2202  -58.6473 C.3       4 UNK        -0.1967 
     54 N          32.7302  -51.3823  -56.2017 N.am      4 UNK        -0.4237 
     55 C          32.3318  -51.4650  -54.9251 C.2       3 UNK         0.4908 
     56 O          31.1488  -51.4084  -54.5806 O.2       3 UNK        -0.5102 
     57 CA         33.4259  -51.5934  -53.8456 C.3       3 UNK         0.0241 
     58 CB         34.8679  -51.6289  -54.4041 C.3       3 UNK        -0.1971 
     59 N          33.3142  -50.5519  -52.8159 N.am      3 UNK        -0.4139 
     60 C          33.2846  -49.2249  -53.0095 C.2       2 UNK         0.5016 
     61 O          33.3220  -48.6783  -54.1161 O.2       2 UNK        -0.5319 
     62 CA         33.2182  -48.3600  -51.7466 C.3       2 UNK         0.0286 
     63 CB         34.6289  -48.0859  -51.1979 C.3       2 UNK        -0.1963 
     64 N          32.5710  -47.0911  -52.0704 N.am      2 UNK        -0.4790 
     65 C          31.7761  -46.3954  -51.2481 C.2       1 UNK         0.5024 
     66 O          31.4923  -46.7695  -50.1091 O.2       1 UNK        -0.4888 
     67 H67        27.5178  -45.5754  -53.2637 H         1 UNK         0.0892 
     68 H68        26.9438  -46.3452  -51.7805 H         1 UNK         0.0892 
     69 H69        26.6980  -44.6142  -52.0369 H         1 UNK         0.0892 
     70 H70        29.7403  -45.6449  -53.1911 H         1 UNK         0.3107 
     71 H71        31.1629  -44.3843  -50.9181 H         1 UNK         0.0773 
     72 H72        32.1194  -44.9941  -53.7608 H         1 UNK         0.0680 
     73 H73        31.4844  -43.4791  -53.1904 H         1 UNK         0.0680 
     74 H74        35.0566  -42.1250  -53.3393 H         1 UNK         0.0650 
     75 H75        33.4958  -41.5064  -52.8527 H         1 UNK         0.0650 
     76 H76        34.8641  -44.1051  -55.2259 H         1 UNK         0.1397 
     77 H77        32.0135  -43.1609  -58.2898 H         1 UNK         0.1363 
     78 H78        31.9758  -41.0047  -54.5861 H         1 UNK         0.1355 
     79 H79        30.3754  -41.4666  -57.9718 H         1 UNK         0.0707 
     80 H80        30.8542  -40.1487  -56.9274 H         1 UNK         0.0707 
     81 H81        29.0688  -43.8168  -55.1507 H         1 UNK         0.1034 
     82 H82        29.6969  -43.7724  -56.7665 H         1 UNK         0.1034 
     83 H83        26.8556  -42.8309  -56.3385 H         1 UNK         0.0482 
     84 H84        26.7612  -44.4688  -59.9152 H         1 UNK         0.3460 
     85 H85        26.2966  -45.2805  -58.4417 H         1 UNK         0.3460 
     86 H86        27.6273  -45.6247  -55.9167 H         1 UNK         0.2989 
     87 H87        25.7227  -46.6393  -54.3767 H         1 UNK         0.0559 
     88 H88        23.2481  -46.5932  -56.1804 H         1 UNK         0.0848 
     89 H89        23.3342  -46.0024  -54.5270 H         1 UNK         0.0848 
     90 H90        23.5311  -47.7165  -54.8513 H         1 UNK         0.0848 
     91 H91        26.3829  -48.2808  -55.6999 H         1 UNK         0.3144 
     92 H92        25.6830  -49.4629  -58.7657 H         1 UNK         0.0727 
     93 H93        27.9796  -49.2205  -59.7381 H         1 UNK         0.0790 
     94 H94        28.2554  -47.7937  -58.7396 H         1 UNK         0.0790 
     95 H95        27.0207  -47.7724  -59.9895 H         1 UNK         0.0790 
     96 H96        28.1150  -49.7691  -57.2296 H         1 UNK         0.3215 
     97 H97        26.6500  -51.9450  -54.7767 H         1 UNK         0.0863 
     98 H98        28.6764  -53.2342  -55.4655 H         1 UNK         0.0808 
     99 H99        28.7735  -52.3030  -56.9592 H         1 UNK         0.0808 
    100 H100       27.4022  -53.3607  -56.6686 H         1 UNK         0.0808 
    101 H101       29.2558  -50.8968  -54.8473 H         1 UNK         0.3118 
    102 H102       28.6289  -47.8679  -53.0226 H         1 UNK         0.0546 
    103 H103       30.1460  -50.4603  -52.4376 H         1 UNK         0.0828 
    104 H104       28.8459  -49.8014  -51.4629 H         1 UNK         0.0828 
    105 H105       30.3376  -48.9082  -51.6263 H         1 UNK         0.0828 
    106 H106       30.8083  -49.2082  -54.5148 H         1 UNK         0.3005 
    107 H107       30.3027  -47.3490  -57.3604 H         1 UNK         0.1257 
    108 H108       32.7325  -46.5624  -55.6817 H         1 UNK         0.0775 
    109 H109       31.4744  -45.4425  -56.1599 H         1 UNK         0.0775 
    110 H110       34.8793  -45.3822  -57.2048 H         1 UNK         0.0840 
    111 H111       34.4389  -44.4971  -58.6453 H         1 UNK         0.0840 
    112 H112       32.5262  -48.9183  -56.2857 H         1 UNK         0.2987 
    113 H113       31.1325  -52.0143  -57.3619 H         1 UNK         0.0785 
    114 H114       33.3996  -50.4236  -58.6812 H         1 UNK         0.0798 
    115 H115       32.0075  -51.0975  -59.5168 H         1 UNK         0.0798 
    116 H116       33.1735  -52.1720  -58.7640 H         1 UNK         0.0798 
    117 H117       33.7202  -51.4215  -56.3964 H         1 UNK         0.3079 
    118 H118       33.2405  -52.5453  -53.3459 H         1 UNK         0.0794 
    119 H119       35.1326  -50.7054  -54.9212 H         1 UNK         0.0786 
    120 H120       35.0081  -52.4585  -55.0984 H         1 UNK         0.0786 
    121 H121       35.5911  -51.7686  -53.6004 H         1 UNK         0.0786 
    122 H122       33.2519  -50.8955  -51.8676 H         1 UNK         0.3032 
    123 H123       32.6369  -48.8939  -50.9916 H         1 UNK         0.1094 
    124 H124       34.5901  -47.4864  -50.2881 H         1 UNK         0.0794 
    125 H125       35.1440  -49.0153  -50.9515 H         1 UNK         0.0794 
    126 H126       35.2447  -47.5520  -51.9230 H         1 UNK         0.0794 
    127 H127       32.7434  -46.7629  -53.0114 H         1 UNK         0.3016 
@<TRIPOS>BOND
     1    1    2 1    
     2    1   67 1    
     3    1   68 1    
     4    1   69 1    
     5    2    3 2    
     6    2    4 am   BACKBONE|DICT|INTERRES
     7    4    5 1    
     8    4   70 1    
     9    5    6 1    
    10    5   65 1    
    11    5   71 1    
    12    6    7 1    
    13    6   72 1    
    14    6   73 1    
    15    7    8 1    
    16    8    9 1    
    17    8   74 1    
    18    8   75 1    
    19    9   10 ar   
    20    9   14 ar   
    21   10   11 ar   
    22   10   76 1    
    23   11   12 ar   
    24   11   48 1    
    25   12   13 ar   
    26   12   77 1    
    27   13   14 ar   
    28   13   15 1    
    29   14   78 1    
    30   15   16 1    
    31   15   79 1    
    32   15   80 1    
    33   16   17 1    
    34   17   18 1    
    35   17   81 1    
    36   17   82 1    
    37   18   19 1    
    38   18   22 1    
    39   18   83 1    
    40   19   20 am   BACKBONE|DICT|INTERRES
    41   19   21 2    
    42   20   84 1    
    43   20   85 1    
    44   22   23 am   BACKBONE|DICT|INTERRES
    45   22   86 1    
    46   23   24 2    
    47   23   25 1    
    48   25   26 1    
    49   25   27 1    
    50   25   87 1    
    51   26   88 1    
    52   26   89 1    
    53   26   90 1    
    54   27   28 am   BACKBONE|DICT|INTERRES
    55   27   91 1    
    56   28   29 2    
    57   28   30 1    
    58   30   31 1    
    59   30   32 1    
    60   30   92 1    
    61   31   93 1    
    62   31   94 1    
    63   31   95 1    
    64   32   33 am   BACKBONE|DICT|INTERRES
    65   32   96 1    
    66   33   34 2    
    67   33   35 1    
    68   35   36 1    
    69   35   37 1    
    70   35   97 1    
    71   36   98 1    
    72   36   99 1    
    73   36  100 1    
    74   37   38 am   BACKBONE|DICT|INTERRES
    75   37  101 1    
    76   38   39 2    
    77   38   40 1    
    78   40   41 1    
    79   40   42 1    
    80   40  102 1    
    81   41  103 1    
    82   41  104 1    
    83   41  105 1    
    84   42   43 am   BACKBONE|DICT|INTERRES
    85   42  106 1    
    86   43   44 2    
    87   43   45 1    
    88   45   46 1    
    89   45   49 1    
    90   45  107 1    
    91   46   47 1    
    92   46  108 1    
    93   46  109 1    
    94   47   48 1    
    95   48  110 1    
    96   48  111 1    
    97   49   50 am   BACKBONE|DICT|INTERRES
    98   49  112 1    
    99   50   51 2    
   100   50   52 1    
   101   52   53 1    
   102   52   54 1    
   103   52  113 1    
   104   53  114 1    
   105   53  115 1    
   106   53  116 1    
   107   54   55 am   BACKBONE|DICT|INTERRES
   108   54  117 1    
   109   55   56 2    
   110   55   57 1    
   111   57   58 1    
   112   57   59 1    
   113   57  118 1    
   114   58  119 1    
   115   58  120 1    
   116   58  121 1    
   117   59   60 am   BACKBONE|DICT|INTERRES
   118   59  122 1    
   119   60   61 2    
   120   60   62 1    
   121   62   63 1    
   122   62   64 1    
   123   62  123 1    
   124   63  124 1    
   125   63  125 1    
   126   63  126 1    
   127   64   65 am   BACKBONE|DICT|INTERRES
   128   64  127 1    
   129   65   66 2    
@<TRIPOS>SUBSTRUCTURE
     1 UNK         1 GROUP             0       ****    0 ROOT    
