@<TRIPOS>MOLECULE
3R134
127   129    1
SMALL
USER_CHARGES


@<TRIPOS>ATOM
      1 CA         35.8194  -47.6518  -52.3300 C.3       0 UNK        -0.1968 
      2 C          34.5663  -46.9826  -52.8729 C.2       0 UNK         0.4852 
      3 O          33.6909  -47.6699  -53.4023 O.2       0 UNK        -0.5359 
      4 N          34.4716  -45.6537  -52.7332 N.am      1 UNK        -0.4300 
      5 CA         33.3499  -44.8163  -53.1747 C.3       1 UNK         0.0863 
      6 C6         33.6038  -43.3157  -52.8817 C.3       11 UNK        -0.0953 
      7 S7         35.1337  -42.7141  -53.6824 S.3       11 UNK        -0.2369 
      8 C8         34.5021  -41.8013  -55.1287 C.3       11 UNK         0.0226 
      9 C9         33.5435  -42.6359  -55.9656 C.ar      11 UNK        -0.0699 
     10 C10        34.0020  -43.7513  -56.6734 C.ar      11 UNK        -0.0804 
     11 C11        33.1071  -44.5508  -57.3916 C.ar      11 UNK        -0.0871 
     12 C12        31.7496  -44.2147  -57.4173 C.ar      11 UNK        -0.1008 
     13 C13        31.2841  -43.0958  -56.7216 C.ar      11 UNK        -0.0735 
     14 C14        32.1866  -42.3065  -56.0052 C.ar      11 UNK        -0.0945 
     15 C15        29.8079  -42.7363  -56.7319 C.3       11 UNK         0.0169 
     16 S16        29.0657  -42.9859  -55.0909 S.3       11 UNK        -0.2669 
     17 C17        27.3378  -42.4988  -55.4166 C.3       11 UNK        -0.0850 
     18 CA         26.2989  -43.4096  -54.7106 C.3       10 UNK         0.0855 
     19 C          24.8566  -42.9271  -55.0480 C.2       10 UNK         0.5543 
     20 N          24.0963  -43.6329  -55.8786 N.am      10 UNK        -0.7343 
     21 O          24.4259  -41.8910  -54.5482 O.2       10 UNK        -0.5027 
     22 N          26.5420  -44.8325  -54.9884 N.am      10 UNK        -0.4495 
     23 C          25.9378  -45.8582  -54.3754 C.2       10 UNK         0.4903 
     24 O          25.2089  -45.7284  -53.3910 O.2       10 UNK        -0.4860 
     25 CA         26.1852  -47.2647  -54.9619 C.3       9 UNK         0.0227 
     26 CB         24.9419  -48.1685  -54.8328 C.3       9 UNK        -0.1964 
     27 N          26.6795  -47.2658  -56.3478 N.am      9 UNK        -0.4231 
     28 C          26.0910  -46.7304  -57.4318 C.2       9 UNK         0.5014 
     29 O          25.0197  -46.1223  -57.4085 O.2       9 UNK        -0.5270 
     30 CA         26.8497  -46.8682  -58.7588 C.3       8 UNK         0.0284 
     31 CB         28.0278  -45.8791  -58.8123 C.3       8 UNK        -0.1977 
     32 N          27.3438  -48.2341  -58.9285 N.am      8 UNK        -0.4342 
     33 C          26.6908  -49.2045  -59.5841 C.2       8 UNK         0.5039 
     34 O          25.6522  -49.0265  -60.2218 O.2       8 UNK        -0.5547 
     35 CA         27.2890  -50.6225  -59.5071 C.3       7 UNK         0.0281 
     36 CB         28.2573  -50.8648  -60.6763 C.3       7 UNK        -0.1963 
     37 N          27.9816  -50.8741  -58.2410 N.am      7 UNK        -0.4444 
     38 C          27.3784  -50.9517  -57.0461 C.2       7 UNK         0.5104 
     39 O          26.1567  -50.9703  -56.9003 O.2       7 UNK        -0.5100 
     40 CA         28.2834  -50.9859  -55.8009 C.3       6 UNK         0.0396 
     41 CB         28.3182  -52.3962  -55.1925 C.3       6 UNK        -0.1801 
     42 N          29.6594  -50.5357  -56.0369 N.am      6 UNK        -0.4747 
     43 C          30.0431  -49.2960  -56.3706 C.2       6 UNK         0.5012 
     44 O          29.2404  -48.3906  -56.6111 O.2       6 UNK        -0.5003 
     45 CA         31.5666  -49.0353  -56.4648 C.3       5 UNK         0.0782 
     46 C46        31.8812  -47.5478  -56.7615 C.3       11 UNK        -0.0868 
     47 S47        33.6587  -47.2378  -57.0290 S.3       11 UNK        -0.2515 
     48 C48        33.6072  -45.7854  -58.1265 C.3       11 UNK         0.0199 
     49 N          32.2718  -49.5097  -55.2676 N.am      5 UNK        -0.4607 
     50 C          32.5445  -50.7876  -54.9681 C.2       4 UNK         0.5031 
     51 O          32.2519  -51.7346  -55.6987 O.2       4 UNK        -0.5119 
     52 CA         33.1962  -51.0607  -53.6079 C.3       4 UNK         0.0263 
     53 CB         34.7239  -50.9209  -53.7027 C.3       4 UNK        -0.1967 
     54 N          32.6690  -50.1362  -52.6032 N.am      4 UNK        -0.4237 
     55 C          31.6447  -50.4092  -51.7854 C.2       3 UNK         0.4908 
     56 O          31.0930  -51.5082  -51.7149 O.2       3 UNK        -0.5102 
     57 CA         31.1529  -49.2624  -50.8882 C.3       3 UNK         0.0241 
     58 CB         32.1485  -48.9980  -49.7462 C.3       3 UNK        -0.1971 
     59 N          30.9044  -48.0145  -51.6122 N.am      3 UNK        -0.4139 
     60 C          29.9502  -47.8116  -52.5299 C.2       2 UNK         0.5016 
     61 O          29.1782  -48.6881  -52.9157 O.2       2 UNK        -0.5319 
     62 CA         29.8037  -46.3865  -53.1040 C.3       2 UNK         0.0286 
     63 CB         28.8884  -45.5355  -52.2010 C.3       2 UNK        -0.1963 
     64 N          31.0734  -45.6987  -53.3949 N.am      2 UNK        -0.4790 
     65 C          32.0289  -45.2974  -52.5438 C.2       1 UNK         0.5024 
     66 O          31.9369  -45.3684  -51.3162 O.2       1 UNK        -0.4888 
     67 H67        35.5496  -48.4708  -51.6639 H         1 UNK         0.0892 
     68 H68        36.4448  -46.9547  -51.7727 H         1 UNK         0.0892 
     69 H69        36.4107  -48.0580  -53.1498 H         1 UNK         0.0892 
     70 H70        35.2233  -45.1509  -52.2845 H         1 UNK         0.3107 
     71 H71        33.2726  -44.9471  -54.2551 H         1 UNK         0.0773 
     72 H72        33.6982  -43.1476  -51.8072 H         1 UNK         0.0680 
     73 H73        32.7584  -42.7069  -53.2070 H         1 UNK         0.0680 
     74 H74        34.0201  -40.8855  -54.7830 H         1 UNK         0.0650 
     75 H75        35.3449  -41.4902  -55.7473 H         1 UNK         0.0650 
     76 H76        35.0505  -44.0144  -56.6368 H         1 UNK         0.1397 
     77 H77        31.0542  -44.8289  -57.9722 H         1 UNK         0.1363 
     78 H78        31.8224  -41.4480  -55.4572 H         1 UNK         0.1355 
     79 H79        29.2710  -43.3352  -57.4685 H         1 UNK         0.0707 
     80 H80        29.6905  -41.6932  -57.0295 H         1 UNK         0.0707 
     81 H81        27.2165  -41.4636  -55.0911 H         1 UNK         0.1034 
     82 H82        27.1605  -42.4970  -56.4940 H         1 UNK         0.1034 
     83 H83        26.4237  -43.2765  -53.6343 H         1 UNK         0.0482 
     84 H84        24.4443  -44.4843  -56.3062 H         1 UNK         0.3460 
     85 H85        23.1650  -43.3112  -56.0885 H         1 UNK         0.3460 
     86 H86        27.1384  -45.0305  -55.7761 H         1 UNK         0.2989 
     87 H87        26.9793  -47.7079  -54.3599 H         1 UNK         0.0559 
     88 H88        24.6422  -48.2809  -53.7902 H         1 UNK         0.0848 
     89 H89        25.1361  -49.1686  -55.2178 H         1 UNK         0.0848 
     90 H90        24.0882  -47.7606  -55.3748 H         1 UNK         0.0848 
     91 H91        27.5947  -47.6976  -56.4702 H         1 UNK         0.3144 
     92 H92        26.1623  -46.6168  -59.5696 H         1 UNK         0.0727 
     93 H93        28.5543  -45.9449  -59.7645 H         1 UNK         0.0790 
     94 H94        28.7533  -46.0581  -58.0178 H         1 UNK         0.0790 
     95 H95        27.6754  -44.8520  -58.7095 H         1 UNK         0.0790 
     96 H96        28.1695  -48.4824  -58.3973 H         1 UNK         0.3215 
     97 H97        26.4645  -51.3343  -59.5900 H         1 UNK         0.0863 
     98 H98        28.6344  -51.8877  -60.6745 H         1 UNK         0.0808 
     99 H99        29.1131  -50.1896  -60.6417 H         1 UNK         0.0808 
    100 H100       27.7576  -50.7077  -61.6333 H         1 UNK         0.0808 
    101 H101       28.9900  -50.9095  -58.2637 H         1 UNK         0.3118 
    102 H102       27.8410  -50.3097  -55.0660 H         1 UNK         0.0546 
    103 H103       27.3111  -52.7523  -54.9708 H         1 UNK         0.0828 
    104 H104       28.8774  -52.4087  -54.2563 H         1 UNK         0.0828 
    105 H105       28.7785  -53.1168  -55.8695 H         1 UNK         0.0828 
    106 H106       30.3970  -51.2161  -55.8751 H         1 UNK         0.3005 
    107 H107       31.9217  -49.6195  -57.3168 H         1 UNK         0.1257 
    108 H108       31.5378  -46.9100  -55.9467 H         1 UNK         0.0775 
    109 H109       31.3428  -47.2262  -57.6548 H         1 UNK         0.0775 
    110 H110       34.6103  -45.6022  -58.5147 H         1 UNK         0.0840 
    111 H111       32.9820  -45.9981  -58.9950 H         1 UNK         0.0840 
    112 H112       32.6005  -48.7884  -54.6329 H         1 UNK         0.2987 
    113 H113       32.9693  -52.0902  -53.3223 H         1 UNK         0.0785 
    114 H114       35.0205  -49.9442  -54.0852 H         1 UNK         0.0798 
    115 H115       35.1384  -51.6702  -54.3783 H         1 UNK         0.0798 
    116 H116       35.1977  -51.0617  -52.7312 H         1 UNK         0.0798 
    117 H117       33.0241  -49.1829  -52.6487 H         1 UNK         0.3079 
    118 H118       30.2056  -49.5770  -50.4450 H         1 UNK         0.0794 
    119 H119       33.1035  -48.6246  -50.1184 H         1 UNK         0.0786 
    120 H120       32.3503  -49.9107  -49.1838 H         1 UNK         0.0786 
    121 H121       31.7558  -48.2647  -49.0414 H         1 UNK         0.0786 
    122 H122       31.4639  -47.2075  -51.3518 H         1 UNK         0.3032 
    123 H123       29.3032  -46.4954  -54.0680 H         1 UNK         0.1094 
    124 H124       28.6996  -44.5541  -52.6335 H         1 UNK         0.0794 
    125 H125       27.9203  -46.0189  -52.0642 H         1 UNK         0.0794 
    126 H126       29.3120  -45.3864  -51.2079 H         1 UNK         0.0794 
    127 H127       31.2709  -45.5890  -54.3797 H         1 UNK         0.3016 
@<TRIPOS>BOND
     1    1    2 1    
     2    1   67 1    
     3    1   68 1    
     4    1   69 1    
     5    2    3 2    
     6    2    4 am   BACKBONE|DICT|INTERRES
     7    4    5 1    
     8    4   70 1    
     9    5    6 1    
    10    5   65 1    
    11    5   71 1    
    12    6    7 1    
    13    6   72 1    
    14    6   73 1    
    15    7    8 1    
    16    8    9 1    
    17    8   74 1    
    18    8   75 1    
    19    9   10 ar   
    20    9   14 ar   
    21   10   11 ar   
    22   10   76 1    
    23   11   12 ar   
    24   11   48 1    
    25   12   13 ar   
    26   12   77 1    
    27   13   14 ar   
    28   13   15 1    
    29   14   78 1    
    30   15   16 1    
    31   15   79 1    
    32   15   80 1    
    33   16   17 1    
    34   17   18 1    
    35   17   81 1    
    36   17   82 1    
    37   18   19 1    
    38   18   22 1    
    39   18   83 1    
    40   19   20 am   BACKBONE|DICT|INTERRES
    41   19   21 2    
    42   20   84 1    
    43   20   85 1    
    44   22   23 am   BACKBONE|DICT|INTERRES
    45   22   86 1    
    46   23   24 2    
    47   23   25 1    
    48   25   26 1    
    49   25   27 1    
    50   25   87 1    
    51   26   88 1    
    52   26   89 1    
    53   26   90 1    
    54   27   28 am   BACKBONE|DICT|INTERRES
    55   27   91 1    
    56   28   29 2    
    57   28   30 1    
    58   30   31 1    
    59   30   32 1    
    60   30   92 1    
    61   31   93 1    
    62   31   94 1    
    63   31   95 1    
    64   32   33 am   BACKBONE|DICT|INTERRES
    65   32   96 1    
    66   33   34 2    
    67   33   35 1    
    68   35   36 1    
    69   35   37 1    
    70   35   97 1    
    71   36   98 1    
    72   36   99 1    
    73   36  100 1    
    74   37   38 am   BACKBONE|DICT|INTERRES
    75   37  101 1    
    76   38   39 2    
    77   38   40 1    
    78   40   41 1    
    79   40   42 1    
    80   40  102 1    
    81   41  103 1    
    82   41  104 1    
    83   41  105 1    
    84   42   43 am   BACKBONE|DICT|INTERRES
    85   42  106 1    
    86   43   44 2    
    87   43   45 1    
    88   45   46 1    
    89   45   49 1    
    90   45  107 1    
    91   46   47 1    
    92   46  108 1    
    93   46  109 1    
    94   47   48 1    
    95   48  110 1    
    96   48  111 1    
    97   49   50 am   BACKBONE|DICT|INTERRES
    98   49  112 1    
    99   50   51 2    
   100   50   52 1    
   101   52   53 1    
   102   52   54 1    
   103   52  113 1    
   104   53  114 1    
   105   53  115 1    
   106   53  116 1    
   107   54   55 am   BACKBONE|DICT|INTERRES
   108   54  117 1    
   109   55   56 2    
   110   55   57 1    
   111   57   58 1    
   112   57   59 1    
   113   57  118 1    
   114   58  119 1    
   115   58  120 1    
   116   58  121 1    
   117   59   60 am   BACKBONE|DICT|INTERRES
   118   59  122 1    
   119   60   61 2    
   120   60   62 1    
   121   62   63 1    
   122   62   64 1    
   123   62  123 1    
   124   63  124 1    
   125   63  125 1    
   126   63  126 1    
   127   64   65 am   BACKBONE|DICT|INTERRES
   128   64  127 1    
   129   65   66 2    
@<TRIPOS>SUBSTRUCTURE
     1 UNK         1 GROUP             0       ****    0 ROOT    
