@<TRIPOS>MOLECULE
3R134
127   129    1
SMALL
USER_CHARGES


@<TRIPOS>ATOM
      1 CA         36.3638  -44.6978  -52.0688 C.3       0 UNK        -0.1968 
      2 C          36.1165  -44.5891  -53.5662 C.2       0 UNK         0.4852 
      3 O          37.0368  -44.8054  -54.3559 O.2       0 UNK        -0.5359 
      4 N          34.8806  -44.2543  -53.9592 N.am      1 UNK        -0.4300 
      5 CA         34.4422  -44.1351  -55.3547 C.3       1 UNK         0.0863 
      6 C6         33.1074  -43.3581  -55.4680 C.3       11 UNK        -0.0953 
      7 S7         33.2877  -41.5769  -55.0982 S.3       11 UNK        -0.2369 
      8 C8         33.0298  -41.4574  -53.2941 C.3       11 UNK         0.0226 
      9 C9         31.7419  -42.1237  -52.8327 C.ar      11 UNK        -0.0699 
     10 C10        31.7913  -43.2597  -52.0190 C.ar      11 UNK        -0.0804 
     11 C11        30.6149  -43.9089  -51.6376 C.ar      11 UNK        -0.0871 
     12 C12        29.3813  -43.3892  -52.0353 C.ar      11 UNK        -0.1008 
     13 C13        29.3200  -42.2739  -52.8738 C.ar      11 UNK        -0.0735 
     14 C14        30.5025  -41.6303  -53.2514 C.ar      11 UNK        -0.0945 
     15 C15        27.9813  -41.8208  -53.4399 C.3       11 UNK         0.0169 
     16 S16        27.2064  -43.1226  -54.4622 S.3       11 UNK        -0.2669 
     17 C17        28.5598  -43.5623  -55.6113 C.3       11 UNK        -0.0850 
     18 CA         28.0718  -43.7666  -57.0647 C.3       10 UNK         0.0855 
     19 C          29.2785  -43.9699  -58.0179 C.2       10 UNK         0.5543 
     20 N          29.6350  -42.9589  -58.7976 N.am      10 UNK        -0.7343 
     21 O          29.9199  -45.0180  -58.0172 O.2       10 UNK        -0.5027 
     22 N          27.1337  -44.8904  -57.1676 N.am      10 UNK        -0.4495 
     23 C          26.2660  -45.0603  -58.1711 C.2       10 UNK         0.4903 
     24 O          26.0714  -44.2326  -59.0636 O.2       10 UNK        -0.4860 
     25 CA         25.5090  -46.3991  -58.1700 C.3       9 UNK         0.0227 
     26 CB         24.4935  -46.5364  -59.3242 C.3       9 UNK        -0.1964 
     27 N          26.4410  -47.5300  -58.1398 N.am      9 UNK        -0.4231 
     28 C          27.3541  -47.8758  -59.0614 C.2       9 UNK         0.5014 
     29 O          27.4943  -47.3139  -60.1484 O.2       9 UNK        -0.5270 
     30 CA         28.2781  -49.0579  -58.7112 C.3       8 UNK         0.0284 
     31 CB         29.6273  -48.5431  -58.1890 C.3       8 UNK        -0.1977 
     32 N          27.7054  -49.9712  -57.7197 N.am      8 UNK        -0.4342 
     33 C          26.6604  -50.7817  -57.9386 C.2       8 UNK         0.5039 
     34 O          26.1126  -50.9207  -59.0327 O.2       8 UNK        -0.5547 
     35 CA         26.1139  -51.5348  -56.7171 C.3       7 UNK         0.0281 
     36 CB         26.9314  -52.8082  -56.4499 C.3       7 UNK        -0.1963 
     37 N          26.1056  -50.6843  -55.5234 N.am      7 UNK        -0.4444 
     38 C          25.2059  -49.7163  -55.2961 C.2       7 UNK         0.5104 
     39 O          24.2618  -49.4686  -56.0457 O.2       7 UNK        -0.5100 
     40 CA         25.3948  -48.8680  -54.0273 C.3       6 UNK         0.0396 
     41 CB         24.6527  -49.5039  -52.8414 C.3       6 UNK        -0.1801 
     42 N          26.8014  -48.6693  -53.6711 N.am      6 UNK        -0.4747 
     43 C          27.6510  -47.8755  -54.3393 C.2       6 UNK         0.5012 
     44 O          27.3413  -47.2193  -55.3345 O.2       6 UNK        -0.5003 
     45 CA         29.0998  -47.8254  -53.8149 C.3       5 UNK         0.0782 
     46 C46        29.2089  -46.7726  -52.6867 C.3       11 UNK        -0.0868 
     47 S47        30.8882  -46.6283  -51.9843 S.3       11 UNK        -0.2515 
     48 C48        30.6820  -45.2106  -50.8565 C.3       11 UNK         0.0199 
     49 N          29.6227  -49.1338  -53.3988 N.am      5 UNK        -0.4607 
     50 C          29.6695  -50.2411  -54.1481 C.2       4 UNK         0.5031 
     51 O          29.1993  -50.3264  -55.2840 O.2       4 UNK        -0.5119 
     52 CA         30.4231  -51.4265  -53.5407 C.3       4 UNK         0.0263 
     53 CB         29.9087  -52.7854  -54.0490 C.3       4 UNK        -0.1967 
     54 N          31.8260  -51.2663  -53.9015 N.am      4 UNK        -0.4237 
     55 C          32.8734  -51.5028  -53.1023 C.2       3 UNK         0.4908 
     56 O          32.7776  -51.9476  -51.9578 O.2       3 UNK        -0.5102 
     57 CA         34.2700  -51.1912  -53.6747 C.3       3 UNK         0.0241 
     58 CB         34.9151  -52.4678  -54.2390 C.3       3 UNK        -0.1971 
     59 N          34.2491  -50.1573  -54.7165 N.am      3 UNK        -0.4139 
     60 C          34.0446  -48.8548  -54.4792 C.2       2 UNK         0.5016 
     61 O          33.9225  -48.3704  -53.3507 O.2       2 UNK        -0.5319 
     62 CA         33.9247  -47.9494  -55.7108 C.3       2 UNK         0.0286 
     63 CB         32.5841  -48.1808  -56.4337 C.3       2 UNK        -0.1963 
     64 N          34.0221  -46.5610  -55.2732 N.am      2 UNK        -0.4790 
     65 C          34.3292  -45.5114  -56.0453 C.2       1 UNK         0.5024 
     66 O          34.5343  -45.5961  -57.2570 O.2       1 UNK        -0.4888 
     67 H67        37.1565  -44.0131  -51.7687 H         1 UNK         0.0892 
     68 H68        35.4730  -44.4597  -51.4878 H         1 UNK         0.0892 
     69 H69        36.6733  -45.7110  -51.8135 H         1 UNK         0.0892 
     70 H70        34.1666  -44.0924  -53.2669 H         1 UNK         0.3107 
     71 H71        35.2072  -43.5769  -55.8994 H         1 UNK         0.0773 
     72 H72        32.3339  -43.8078  -54.8441 H         1 UNK         0.0680 
     73 H73        32.7238  -43.4146  -56.4891 H         1 UNK         0.0680 
     74 H74        33.0007  -40.4028  -53.0170 H         1 UNK         0.0650 
     75 H75        33.8950  -41.8781  -52.7807 H         1 UNK         0.0650 
     76 H76        32.7435  -43.6619  -51.7039 H         1 UNK         0.1397 
     77 H77        28.4670  -43.8940  -51.7544 H         1 UNK         0.1363 
     78 H78        30.4659  -40.7713  -53.9075 H         1 UNK         0.1355 
     79 H79        27.3102  -41.5615  -52.6200 H         1 UNK         0.0707 
     80 H80        28.0979  -40.9193  -54.0435 H         1 UNK         0.0707 
     81 H81        29.3114  -42.7713  -55.5908 H         1 UNK         0.1034 
     82 H82        29.0575  -44.4596  -55.2384 H         1 UNK         0.1034 
     83 H83        27.5452  -42.8579  -57.3647 H         1 UNK         0.0482 
     84 H84        30.4273  -43.0706  -59.4102 H         1 UNK         0.3460 
     85 H85        29.1176  -42.0937  -58.8004 H         1 UNK         0.3460 
     86 H86        27.2506  -45.6398  -56.4921 H         1 UNK         0.2989 
     87 H87        24.9497  -46.4404  -57.2339 H         1 UNK         0.0559 
     88 H88        23.7413  -45.7484  -59.2744 H         1 UNK         0.0848 
     89 H89        23.9683  -47.4904  -59.2768 H         1 UNK         0.0848 
     90 H90        24.9716  -46.4649  -60.3015 H         1 UNK         0.0848 
     91 H91        26.4788  -48.0248  -57.2583 H         1 UNK         0.3144 
     92 H92        28.4563  -49.6220  -59.6291 H         1 UNK         0.0727 
     93 H93        29.5108  -47.9765  -57.2642 H         1 UNK         0.0790 
     94 H94        30.1030  -47.8823  -58.9151 H         1 UNK         0.0790 
     95 H95        30.3149  -49.3663  -57.9968 H         1 UNK         0.0790 
     96 H96        28.1471  -49.9868  -56.8021 H         1 UNK         0.3215 
     97 H97        25.0862  -51.8329  -56.9372 H         1 UNK         0.0863 
     98 H98        26.5583  -53.3479  -55.5794 H         1 UNK         0.0808 
     99 H99        27.9847  -52.5846  -56.2842 H         1 UNK         0.0808 
    100 H100       26.8764  -53.4881  -57.3011 H         1 UNK         0.0808 
    101 H101       26.8819  -50.7826  -54.8846 H         1 UNK         0.3118 
    102 H102       24.9515  -47.8877  -54.2168 H         1 UNK         0.0546 
    103 H103       25.0584  -50.4836  -52.5861 H         1 UNK         0.0828 
    104 H104       23.5950  -49.6399  -53.0717 H         1 UNK         0.0828 
    105 H105       24.7096  -48.8740  -51.9535 H         1 UNK         0.0828 
    106 H106       27.1467  -49.1694  -52.8643 H         1 UNK         0.3005 
    107 H107       29.7180  -47.4887  -54.6490 H         1 UNK         0.1257 
    108 H108       28.5210  -47.0029  -51.8706 H         1 UNK         0.0775 
    109 H109       28.9103  -45.8006  -53.0785 H         1 UNK         0.0775 
    110 H110       29.7865  -45.3459  -50.2478 H         1 UNK         0.0840 
    111 H111       31.5228  -45.1838  -50.1616 H         1 UNK         0.0840 
    112 H112       30.0766  -49.1433  -52.4962 H         1 UNK         0.2987 
    113 H113       30.2981  -51.3914  -52.4561 H         1 UNK         0.0785 
    114 H114       28.8415  -52.8982  -53.8550 H         1 UNK         0.0798 
    115 H115       30.4181  -53.6092  -53.5489 H         1 UNK         0.0798 
    116 H116       30.0658  -52.9023  -55.1218 H         1 UNK         0.0798 
    117 H117       31.9962  -50.8828  -54.8201 H         1 UNK         0.3079 
    118 H118       34.8890  -50.8330  -52.8489 H         1 UNK         0.0794 
    119 H119       35.9331  -52.2805  -54.5815 H         1 UNK         0.0786 
    120 H120       34.3466  -52.8733  -55.0770 H         1 UNK         0.0786 
    121 H121       34.9705  -53.2462  -53.4765 H         1 UNK         0.0786 
    122 H122       34.3616  -50.4719  -55.6701 H         1 UNK         0.3032 
    123 H123       34.7556  -48.1695  -56.3851 H         1 UNK         0.1094 
    124 H124       31.7375  -47.9988  -55.7723 H         1 UNK         0.0794 
    125 H125       32.4754  -47.5259  -57.2986 H         1 UNK         0.0794 
    126 H126       32.5022  -49.2051  -56.7981 H         1 UNK         0.0794 
    127 H127       33.9146  -46.4412  -54.2727 H         1 UNK         0.3016 
@<TRIPOS>BOND
     1    1    2 1    
     2    1   67 1    
     3    1   68 1    
     4    1   69 1    
     5    2    3 2    
     6    2    4 am   BACKBONE|DICT|INTERRES
     7    4    5 1    
     8    4   70 1    
     9    5    6 1    
    10    5   65 1    
    11    5   71 1    
    12    6    7 1    
    13    6   72 1    
    14    6   73 1    
    15    7    8 1    
    16    8    9 1    
    17    8   74 1    
    18    8   75 1    
    19    9   10 ar   
    20    9   14 ar   
    21   10   11 ar   
    22   10   76 1    
    23   11   12 ar   
    24   11   48 1    
    25   12   13 ar   
    26   12   77 1    
    27   13   14 ar   
    28   13   15 1    
    29   14   78 1    
    30   15   16 1    
    31   15   79 1    
    32   15   80 1    
    33   16   17 1    
    34   17   18 1    
    35   17   81 1    
    36   17   82 1    
    37   18   19 1    
    38   18   22 1    
    39   18   83 1    
    40   19   20 am   BACKBONE|DICT|INTERRES
    41   19   21 2    
    42   20   84 1    
    43   20   85 1    
    44   22   23 am   BACKBONE|DICT|INTERRES
    45   22   86 1    
    46   23   24 2    
    47   23   25 1    
    48   25   26 1    
    49   25   27 1    
    50   25   87 1    
    51   26   88 1    
    52   26   89 1    
    53   26   90 1    
    54   27   28 am   BACKBONE|DICT|INTERRES
    55   27   91 1    
    56   28   29 2    
    57   28   30 1    
    58   30   31 1    
    59   30   32 1    
    60   30   92 1    
    61   31   93 1    
    62   31   94 1    
    63   31   95 1    
    64   32   33 am   BACKBONE|DICT|INTERRES
    65   32   96 1    
    66   33   34 2    
    67   33   35 1    
    68   35   36 1    
    69   35   37 1    
    70   35   97 1    
    71   36   98 1    
    72   36   99 1    
    73   36  100 1    
    74   37   38 am   BACKBONE|DICT|INTERRES
    75   37  101 1    
    76   38   39 2    
    77   38   40 1    
    78   40   41 1    
    79   40   42 1    
    80   40  102 1    
    81   41  103 1    
    82   41  104 1    
    83   41  105 1    
    84   42   43 am   BACKBONE|DICT|INTERRES
    85   42  106 1    
    86   43   44 2    
    87   43   45 1    
    88   45   46 1    
    89   45   49 1    
    90   45  107 1    
    91   46   47 1    
    92   46  108 1    
    93   46  109 1    
    94   47   48 1    
    95   48  110 1    
    96   48  111 1    
    97   49   50 am   BACKBONE|DICT|INTERRES
    98   49  112 1    
    99   50   51 2    
   100   50   52 1    
   101   52   53 1    
   102   52   54 1    
   103   52  113 1    
   104   53  114 1    
   105   53  115 1    
   106   53  116 1    
   107   54   55 am   BACKBONE|DICT|INTERRES
   108   54  117 1    
   109   55   56 2    
   110   55   57 1    
   111   57   58 1    
   112   57   59 1    
   113   57  118 1    
   114   58  119 1    
   115   58  120 1    
   116   58  121 1    
   117   59   60 am   BACKBONE|DICT|INTERRES
   118   59  122 1    
   119   60   61 2    
   120   60   62 1    
   121   62   63 1    
   122   62   64 1    
   123   62  123 1    
   124   63  124 1    
   125   63  125 1    
   126   63  126 1    
   127   64   65 am   BACKBONE|DICT|INTERRES
   128   64  127 1    
   129   65   66 2    
@<TRIPOS>SUBSTRUCTURE
     1 UNK         1 GROUP             0       ****    0 ROOT    
