@<TRIPOS>MOLECULE
3R134
127   129    1
SMALL
USER_CHARGES


@<TRIPOS>ATOM
      1 CA         37.7242  -44.3457  -50.1315 C.3       0 UNK        -0.1968 
      2 C          36.3639  -44.8907  -50.5410 C.2       0 UNK         0.4852 
      3 O          35.7248  -45.5842  -49.7473 O.2       0 UNK        -0.5359 
      4 N          35.9268  -44.5824  -51.7712 N.am      1 UNK        -0.4300 
      5 CA         34.6634  -44.9831  -52.4099 C.3       1 UNK         0.0863 
      6 C6         33.3866  -44.5390  -51.6424 C.3       11 UNK        -0.0953 
      7 S7         33.2546  -42.7201  -51.5662 S.3       11 UNK        -0.2369 
      8 C8         31.5054  -42.4369  -52.0153 C.3       11 UNK         0.0226 
      9 C9         31.0694  -42.9854  -53.3758 C.ar      11 UNK        -0.0699 
     10 C10        31.9691  -43.1803  -54.4314 C.ar      11 UNK        -0.0804 
     11 C11        31.5408  -43.7109  -55.6517 C.ar      11 UNK        -0.0871 
     12 C12        30.1848  -44.0056  -55.8303 C.ar      11 UNK        -0.1008 
     13 C13        29.2701  -43.7951  -54.7957 C.ar      11 UNK        -0.0735 
     14 C14        29.7200  -43.2920  -53.5724 C.ar      11 UNK        -0.0945 
     15 C15        27.7969  -44.1198  -54.9851 C.3       11 UNK         0.0169 
     16 S16        26.8533  -42.6544  -55.5101 S.3       11 UNK        -0.2669 
     17 C17        27.0688  -42.6988  -57.3245 C.3       11 UNK        -0.0850 
     18 CA         25.7995  -43.2164  -58.0523 C.3       10 UNK         0.0855 
     19 C          25.9349  -43.0991  -59.5996 C.2       10 UNK         0.5543 
     20 N          25.7332  -44.1565  -60.3784 N.am      10 UNK        -0.7343 
     21 O          26.2208  -42.0176  -60.1075 O.2       10 UNK        -0.5027 
     22 N          25.4265  -44.5597  -57.5860 N.am      10 UNK        -0.4495 
     23 C          24.1813  -45.0441  -57.5358 C.2       10 UNK         0.4903 
     24 O          23.1769  -44.3918  -57.8257 O.2       10 UNK        -0.4860 
     25 CA         24.0512  -46.5141  -57.0888 C.3       9 UNK         0.0227 
     26 CB         22.7031  -47.1455  -57.4958 C.3       9 UNK        -0.1964 
     27 N          25.1712  -47.3587  -57.5293 N.am      9 UNK        -0.4231 
     28 C          25.5678  -47.5839  -58.7951 C.2       9 UNK         0.5014 
     29 O          25.0508  -47.0454  -59.7752 O.2       9 UNK        -0.5270 
     30 CA         26.7562  -48.5387  -59.0243 C.3       8 UNK         0.0284 
     31 CB         27.9478  -47.7819  -59.6365 C.3       8 UNK        -0.1977 
     32 N          27.1851  -49.2305  -57.8048 N.am      8 UNK        -0.4342 
     33 C          26.5321  -50.2705  -57.2629 C.2       8 UNK         0.5039 
     34 O          25.5547  -50.8023  -57.7912 O.2       8 UNK        -0.5547 
     35 CA         27.0126  -50.8046  -55.8993 C.3       7 UNK         0.0281 
     36 CB         27.7450  -52.1441  -56.0822 C.3       7 UNK        -0.1963 
     37 N          27.8685  -49.8873  -55.1399 N.am      7 UNK        -0.4444 
     38 C          27.5192  -48.6706  -54.6968 C.2       7 UNK         0.5104 
     39 O          26.4070  -48.1709  -54.8724 O.2       7 UNK        -0.5100 
     40 CA         28.6278  -47.8411  -54.0202 C.3       6 UNK         0.0396 
     41 CB         28.7657  -48.2163  -52.5384 C.3       6 UNK        -0.1801 
     42 N          29.9278  -47.9639  -54.6922 N.am      6 UNK        -0.4747 
     43 C          30.1419  -47.6384  -55.9784 C.2       6 UNK         0.5012 
     44 O          29.2649  -47.1843  -56.7131 O.2       6 UNK        -0.5003 
     45 CA         31.5332  -47.9331  -56.5670 C.3       5 UNK         0.0782 
     46 C46        32.5268  -46.7622  -56.3708 C.3       11 UNK        -0.0868 
     47 S47        32.3349  -45.5025  -57.6790 S.3       11 UNK        -0.2515 
     48 C48        32.5585  -43.9384  -56.7662 C.3       11 UNK         0.0199 
     49 N          32.0521  -49.2052  -56.0582 N.am      5 UNK        -0.4607 
     50 C          31.7105  -50.3956  -56.5732 C.2       4 UNK         0.5031 
     51 O          30.9780  -50.5317  -57.5531 O.2       4 UNK        -0.5119 
     52 CA         32.2618  -51.6516  -55.8776 C.3       4 UNK         0.0263 
     53 CB         33.6582  -51.9982  -56.4186 C.3       4 UNK        -0.1967 
     54 N          32.3184  -51.5368  -54.4194 N.am      4 UNK        -0.4237 
     55 C          31.2537  -51.3703  -53.6217 C.2       3 UNK         0.4908 
     56 O          30.0954  -51.2984  -54.0279 O.2       3 UNK        -0.5102 
     57 CA         31.5286  -51.2239  -52.1163 C.3       3 UNK         0.0241 
     58 CB         31.5095  -52.5997  -51.4315 C.3       3 UNK        -0.1971 
     59 N          32.7882  -50.5395  -51.8093 N.am      3 UNK        -0.4139 
     60 C          33.0951  -49.2881  -52.1797 C.2       2 UNK         0.5016 
     61 O          32.3472  -48.5755  -52.8570 O.2       2 UNK        -0.5319 
     62 CA         34.4799  -48.7931  -51.7204 C.3       2 UNK         0.0286 
     63 CB         35.6087  -49.4559  -52.5383 C.3       2 UNK        -0.1963 
     64 N          34.6099  -47.3312  -51.7159 N.am      2 UNK        -0.4790 
     65 C          34.6382  -46.4845  -52.7537 C.2       1 UNK         0.5024 
     66 O          34.6680  -46.8293  -53.9349 O.2       1 UNK        -0.4888 
     67 H67        37.6249  -43.7197  -49.2451 H         1 UNK         0.0892 
     68 H68        38.4011  -45.1663  -49.8953 H         1 UNK         0.0892 
     69 H69        38.1796  -43.7464  -50.9197 H         1 UNK         0.0892 
     70 H70        36.5273  -44.0238  -52.3617 H         1 UNK         0.3107 
     71 H71        34.6543  -44.4668  -53.3712 H         1 UNK         0.0773 
     72 H72        33.3699  -44.9298  -50.6247 H         1 UNK         0.0680 
     73 H73        32.4966  -44.9454  -52.1262 H         1 UNK         0.0680 
     74 H74        30.8859  -42.8706  -51.2286 H         1 UNK         0.0650 
     75 H75        31.3164  -41.3629  -52.0005 H         1 UNK         0.0650 
     76 H76        33.0115  -42.9269  -54.3047 H         1 UNK         0.1397 
     77 H77        29.8431  -44.4110  -56.7724 H         1 UNK         0.1363 
     78 H78        29.0116  -43.1338  -52.7705 H         1 UNK         0.1355 
     79 H79        27.6708  -44.9322  -55.7024 H         1 UNK         0.0707 
     80 H80        27.3787  -44.4819  -54.0447 H         1 UNK         0.0707 
     81 H81        27.3039  -41.6829  -57.6474 H         1 UNK         0.1034 
     82 H82        27.9371  -43.3027  -57.5895 H         1 UNK         0.1034 
     83 H83        24.9869  -42.5372  -57.7872 H         1 UNK         0.0482 
     84 H84        25.4680  -45.0554  -59.9922 H         1 UNK         0.3460 
     85 H85        25.8221  -44.0514  -61.3763 H         1 UNK         0.3460 
     86 H86        26.1881  -45.1768  -57.3504 H         1 UNK         0.2989 
     87 H87        24.0941  -46.5027  -55.9988 H         1 UNK         0.0559 
     88 H88        22.5644  -47.1401  -58.5775 H         1 UNK         0.0848 
     89 H89        21.8661  -46.6000  -57.0583 H         1 UNK         0.0848 
     90 H90        22.6291  -48.1777  -57.1535 H         1 UNK         0.0848 
     91 H91        25.6825  -47.8146  -56.7794 H         1 UNK         0.3144 
     92 H92        26.4325  -49.2898  -59.7479 H         1 UNK         0.0727 
     93 H93        28.2296  -46.9142  -59.0402 H         1 UNK         0.0790 
     94 H94        27.7005  -47.4150  -60.6335 H         1 UNK         0.0790 
     95 H95        28.8236  -48.4236  -59.7356 H         1 UNK         0.0790 
     96 H96        27.9698  -48.8247  -57.3071 H         1 UNK         0.3215 
     97 H97        26.1187  -50.9845  -55.2985 H         1 UNK         0.0863 
     98 H98        27.9681  -52.6084  -55.1215 H         1 UNK         0.0808 
     99 H99        28.6855  -52.0173  -56.6201 H         1 UNK         0.0808 
    100 H100       27.1373  -52.8525  -56.6470 H         1 UNK         0.0808 
    101 H101       28.7915  -50.2393  -54.8931 H         1 UNK         0.3118 
    102 H102       28.3367  -46.7916  -54.0731 H         1 UNK         0.0546 
    103 H103       29.5545  -47.6418  -52.0522 H         1 UNK         0.0828 
    104 H104       28.9910  -49.2743  -52.4114 H         1 UNK         0.0828 
    105 H105       27.8381  -48.0165  -52.0005 H         1 UNK         0.0828 
    106 H106       30.7038  -48.3117  -54.1372 H         1 UNK         0.3005 
    107 H107       31.3870  -48.0556  -57.6435 H         1 UNK         0.1257 
    108 H108       32.4293  -46.3178  -55.3784 H         1 UNK         0.0775 
    109 H109       33.5538  -47.1248  -56.4353 H         1 UNK         0.0775 
    110 H110       33.5744  -43.9217  -56.3679 H         1 UNK         0.0840 
    111 H111       32.4908  -43.1097  -57.4720 H         1 UNK         0.0840 
    112 H112       32.6222  -49.1648  -55.2240 H         1 UNK         0.2987 
    113 H113       31.5883  -52.4779  -56.1157 H         1 UNK         0.0785 
    114 H114       34.3881  -51.2224  -56.1833 H         1 UNK         0.0798 
    115 H115       33.6391  -52.1090  -57.5038 H         1 UNK         0.0798 
    116 H116       34.0221  -52.9393  -56.0059 H         1 UNK         0.0798 
    117 H117       33.2316  -51.5833  -53.9925 H         1 UNK         0.3079 
    118 H118       30.7223  -50.6247  -51.6912 H         1 UNK         0.0794 
    119 H119       32.3172  -53.2411  -51.7866 H         1 UNK         0.0786 
    120 H120       30.5704  -53.1195  -51.6279 H         1 UNK         0.0786 
    121 H121       31.6043  -52.5066  -50.3494 H         1 UNK         0.0786 
    122 H122       33.4556  -51.0585  -51.2564 H         1 UNK         0.3032 
    123 H123       34.5980  -49.0947  -50.6780 H         1 UNK         0.1094 
    124 H124       36.5872  -49.0783  -52.2413 H         1 UNK         0.0794 
    125 H125       35.6234  -50.5358  -52.3875 H         1 UNK         0.0794 
    126 H126       35.4950  -49.2840  -53.6091 H         1 UNK         0.0794 
    127 H127       34.6760  -46.9002  -50.7976 H         1 UNK         0.3016 
@<TRIPOS>BOND
     1    1    2 1    
     2    1   67 1    
     3    1   68 1    
     4    1   69 1    
     5    2    3 2    
     6    2    4 am   BACKBONE|DICT|INTERRES
     7    4    5 1    
     8    4   70 1    
     9    5    6 1    
    10    5   65 1    
    11    5   71 1    
    12    6    7 1    
    13    6   72 1    
    14    6   73 1    
    15    7    8 1    
    16    8    9 1    
    17    8   74 1    
    18    8   75 1    
    19    9   10 ar   
    20    9   14 ar   
    21   10   11 ar   
    22   10   76 1    
    23   11   12 ar   
    24   11   48 1    
    25   12   13 ar   
    26   12   77 1    
    27   13   14 ar   
    28   13   15 1    
    29   14   78 1    
    30   15   16 1    
    31   15   79 1    
    32   15   80 1    
    33   16   17 1    
    34   17   18 1    
    35   17   81 1    
    36   17   82 1    
    37   18   19 1    
    38   18   22 1    
    39   18   83 1    
    40   19   20 am   BACKBONE|DICT|INTERRES
    41   19   21 2    
    42   20   84 1    
    43   20   85 1    
    44   22   23 am   BACKBONE|DICT|INTERRES
    45   22   86 1    
    46   23   24 2    
    47   23   25 1    
    48   25   26 1    
    49   25   27 1    
    50   25   87 1    
    51   26   88 1    
    52   26   89 1    
    53   26   90 1    
    54   27   28 am   BACKBONE|DICT|INTERRES
    55   27   91 1    
    56   28   29 2    
    57   28   30 1    
    58   30   31 1    
    59   30   32 1    
    60   30   92 1    
    61   31   93 1    
    62   31   94 1    
    63   31   95 1    
    64   32   33 am   BACKBONE|DICT|INTERRES
    65   32   96 1    
    66   33   34 2    
    67   33   35 1    
    68   35   36 1    
    69   35   37 1    
    70   35   97 1    
    71   36   98 1    
    72   36   99 1    
    73   36  100 1    
    74   37   38 am   BACKBONE|DICT|INTERRES
    75   37  101 1    
    76   38   39 2    
    77   38   40 1    
    78   40   41 1    
    79   40   42 1    
    80   40  102 1    
    81   41  103 1    
    82   41  104 1    
    83   41  105 1    
    84   42   43 am   BACKBONE|DICT|INTERRES
    85   42  106 1    
    86   43   44 2    
    87   43   45 1    
    88   45   46 1    
    89   45   49 1    
    90   45  107 1    
    91   46   47 1    
    92   46  108 1    
    93   46  109 1    
    94   47   48 1    
    95   48  110 1    
    96   48  111 1    
    97   49   50 am   BACKBONE|DICT|INTERRES
    98   49  112 1    
    99   50   51 2    
   100   50   52 1    
   101   52   53 1    
   102   52   54 1    
   103   52  113 1    
   104   53  114 1    
   105   53  115 1    
   106   53  116 1    
   107   54   55 am   BACKBONE|DICT|INTERRES
   108   54  117 1    
   109   55   56 2    
   110   55   57 1    
   111   57   58 1    
   112   57   59 1    
   113   57  118 1    
   114   58  119 1    
   115   58  120 1    
   116   58  121 1    
   117   59   60 am   BACKBONE|DICT|INTERRES
   118   59  122 1    
   119   60   61 2    
   120   60   62 1    
   121   62   63 1    
   122   62   64 1    
   123   62  123 1    
   124   63  124 1    
   125   63  125 1    
   126   63  126 1    
   127   64   65 am   BACKBONE|DICT|INTERRES
   128   64  127 1    
   129   65   66 2    
@<TRIPOS>SUBSTRUCTURE
     1 UNK         1 GROUP             0       ****    0 ROOT    
