@<TRIPOS>MOLECULE
3R134
127   129    1
SMALL
USER_CHARGES


@<TRIPOS>ATOM
      1 CA         33.2448  -46.9967  -51.4424 C.3       0 UNK        -0.1968 
      2 C          34.3356  -47.1118  -52.4968 C.2       0 UNK         0.4852 
      3 O          35.1825  -48.0016  -52.4139 O.2       0 UNK        -0.5359 
      4 N          34.3094  -46.2261  -53.5003 N.am      1 UNK        -0.4300 
      5 CA         35.2552  -46.1658  -54.6250 C.3       1 UNK         0.0863 
      6 C6         35.0809  -44.8704  -55.4609 C.3       11 UNK        -0.0953 
      7 S7         33.3378  -44.5011  -55.8734 S.3       11 UNK        -0.2369 
      8 C8         32.9962  -43.1145  -54.7424 C.3       11 UNK         0.0226 
      9 C9         31.5460  -43.1035  -54.2830 C.ar      11 UNK        -0.0699 
     10 C10        31.2278  -43.3348  -52.9410 C.ar      11 UNK        -0.0804 
     11 C11        29.8997  -43.2834  -52.5100 C.ar      11 UNK        -0.0871 
     12 C12        28.8881  -43.0092  -53.4339 C.ar      11 UNK        -0.1008 
     13 C13        29.1856  -42.7773  -54.7797 C.ar      11 UNK        -0.0735 
     14 C14        30.5236  -42.8268  -55.1952 C.ar      11 UNK        -0.0945 
     15 C15        28.0220  -42.4726  -55.7236 C.3       11 UNK         0.0169 
     16 S16        28.4786  -41.9693  -57.4189 S.3       11 UNK        -0.2669 
     17 C17        26.8300  -41.5999  -58.1168 C.3       11 UNK        -0.0850 
     18 CA         26.2720  -42.7190  -59.0340 C.3       10 UNK         0.0855 
     19 C          26.9700  -42.7513  -60.4267 C.2       10 UNK         0.5543 
     20 N          27.6090  -43.8410  -60.8360 N.am      10 UNK        -0.7343 
     21 O          26.9132  -41.7670  -61.1601 O.2       10 UNK        -0.5027 
     22 N          26.2264  -44.0113  -58.3350 N.am      10 UNK        -0.4495 
     23 C          25.3903  -45.0129  -58.6259 C.2       10 UNK         0.4903 
     24 O          24.4759  -44.9165  -59.4464 O.2       10 UNK        -0.4860 
     25 CA         25.6064  -46.3431  -57.8726 C.3       9 UNK         0.0227 
     26 CB         25.0998  -47.5514  -58.6880 C.3       9 UNK        -0.1964 
     27 N          26.9846  -46.5913  -57.4201 N.am      9 UNK        -0.4231 
     28 C          28.0951  -46.6318  -58.1753 C.2       9 UNK         0.5014 
     29 O          28.1421  -46.2913  -59.3580 O.2       9 UNK        -0.5270 
     30 CA         29.3612  -47.1867  -57.5015 C.3       8 UNK         0.0284 
     31 CB         30.0111  -46.1401  -56.5812 C.3       8 UNK        -0.1977 
     32 N          29.0874  -48.4173  -56.7533 N.am      8 UNK        -0.4342 
     33 C          28.7050  -49.5785  -57.3101 C.2       8 UNK         0.5039 
     34 O          28.6230  -49.7657  -58.5244 O.2       8 UNK        -0.5547 
     35 CA         28.3296  -50.7221  -56.3546 C.3       7 UNK         0.0281 
     36 CB         29.5665  -51.5482  -55.9664 C.3       7 UNK        -0.1963 
     37 N          27.6590  -50.2198  -55.1537 N.am      7 UNK        -0.4444 
     38 C          26.3618  -49.8813  -55.1058 C.2       7 UNK         0.5104 
     39 O          25.5712  -50.0692  -56.0295 O.2       7 UNK        -0.5100 
     40 CA         25.8531  -49.2125  -53.8151 C.3       6 UNK         0.0396 
     41 CB         25.2023  -50.2557  -52.8932 C.3       6 UNK        -0.1801 
     42 N          26.8990  -48.5013  -53.0755 N.am      6 UNK        -0.4747 
     43 C          27.5113  -47.3812  -53.4900 C.2       6 UNK         0.5012 
     44 O          27.2263  -46.7945  -54.5346 O.2       6 UNK        -0.5003 
     45 CA         28.6868  -46.8842  -52.6224 C.3       5 UNK         0.0782 
     46 C46        28.1927  -45.9243  -51.5153 C.3       11 UNK        -0.0868 
     47 S47        29.5849  -45.2364  -50.5543 S.3       11 UNK        -0.2515 
     48 C48        29.5598  -43.4831  -51.0396 C.3       11 UNK         0.0199 
     49 N          29.4502  -48.0083  -52.0633 N.am      5 UNK        -0.4607 
     50 C          30.1729  -48.8678  -52.7863 C.2       4 UNK         0.5031 
     51 O          30.3046  -48.7917  -54.0106 O.2       4 UNK        -0.5119 
     52 CA         30.7985  -50.0372  -52.0238 C.3       4 UNK         0.0263 
     53 CB         29.8268  -51.2299  -51.9598 C.3       4 UNK        -0.1967 
     54 N          32.0273  -50.4181  -52.7061 N.am      4 UNK        -0.4237 
     55 C          33.0559  -51.0821  -52.1664 C.2       3 UNK         0.4908 
     56 O          33.0443  -51.5299  -51.0189 O.2       3 UNK        -0.5102 
     57 CA         34.3364  -51.2396  -53.0095 C.3       3 UNK         0.0241 
     58 CB         34.6287  -52.7172  -53.3437 C.3       3 UNK        -0.1971 
     59 N          34.3818  -50.3717  -54.1965 N.am      3 UNK        -0.4139 
     60 C          33.7295  -50.4983  -55.3630 C.2       2 UNK         0.5016 
     61 O          33.0190  -51.4617  -55.6468 O.2       2 UNK        -0.5319 
     62 CA         33.8360  -49.3188  -56.3500 C.3       2 UNK         0.0286 
     63 CB         32.5701  -49.1807  -57.2126 C.3       2 UNK        -0.1963 
     64 N          34.0510  -48.0534  -55.6423 N.am      2 UNK        -0.4790 
     65 C          35.2273  -47.4253  -55.5181 C.2       1 UNK         0.5024 
     66 O          36.2701  -47.8208  -56.0401 O.2       1 UNK        -0.4888 
     67 H67        32.9401  -47.9857  -51.1032 H         1 UNK         0.0892 
     68 H68        33.6148  -46.4433  -50.5799 H         1 UNK         0.0892 
     69 H69        32.3624  -46.4845  -51.8266 H         1 UNK         0.0892 
     70 H70        33.5758  -45.5329  -53.5318 H         1 UNK         0.3107 
     71 H71        36.2557  -46.1352  -54.1877 H         1 UNK         0.0773 
     72 H72        35.6537  -44.9211  -56.3892 H         1 UNK         0.0680 
     73 H73        35.5086  -44.0283  -54.9154 H         1 UNK         0.0680 
     74 H74        33.2269  -42.1767  -55.2495 H         1 UNK         0.0650 
     75 H75        33.6578  -43.1646  -53.8765 H         1 UNK         0.0650 
     76 H76        32.0117  -43.5374  -52.2241 H         1 UNK         0.1397 
     77 H77        27.8597  -42.9622  -53.1018 H         1 UNK         0.1363 
     78 H78        30.7898  -42.6515  -56.2273 H         1 UNK         0.1355 
     79 H79        27.3816  -43.3539  -55.7754 H         1 UNK         0.0707 
     80 H80        27.4218  -41.6755  -55.2819 H         1 UNK         0.0707 
     81 H81        26.1259  -41.4167  -57.3039 H         1 UNK         0.1034 
     82 H82        26.8878  -40.6527  -58.6567 H         1 UNK         0.1034 
     83 H83        25.2391  -42.4404  -59.2518 H         1 UNK         0.0482 
     84 H84        27.6797  -44.6645  -60.2442 H         1 UNK         0.3460 
     85 H85        28.0464  -43.8415  -61.7431 H         1 UNK         0.3460 
     86 H86        26.9779  -44.1843  -57.6849 H         1 UNK         0.2989 
     87 H87        25.0027  -46.2785  -56.9664 H         1 UNK         0.0559 
     88 H88        25.6210  -47.6383  -59.6421 H         1 UNK         0.0848 
     89 H89        24.0342  -47.4653  -58.9038 H         1 UNK         0.0848 
     90 H90        25.2424  -48.4857  -58.1462 H         1 UNK         0.0848 
     91 H91        27.0821  -46.8136  -56.4311 H         1 UNK         0.3144 
     92 H92        30.0768  -47.4323  -58.2891 H         1 UNK         0.0727 
     93 H93        30.9152  -46.5286  -56.1125 H         1 UNK         0.0790 
     94 H94        30.2974  -45.2524  -57.1469 H         1 UNK         0.0790 
     95 H95        29.3399  -45.8115  -55.7884 H         1 UNK         0.0790 
     96 H96        29.2079  -48.3808  -55.7479 H         1 UNK         0.3215 
     97 H97        27.6441  -51.3848  -56.8880 H         1 UNK         0.0863 
     98 H98        29.2950  -52.4045  -55.3494 H         1 UNK         0.0808 
     99 H99        30.3009  -50.9589  -55.4192 H         1 UNK         0.0808 
    100 H100       30.0681  -51.9367  -56.8537 H         1 UNK         0.0808 
    101 H101       28.2422  -50.0122  -54.3570 H         1 UNK         0.3118 
    102 H102       25.0897  -48.4858  -54.1015 H         1 UNK         0.0546 
    103 H103       25.9203  -51.0055  -52.5583 H         1 UNK         0.0828 
    104 H104       24.3982  -50.7832  -53.4084 H         1 UNK         0.0828 
    105 H105       24.7656  -49.7889  -52.0102 H         1 UNK         0.0828 
    106 H106       27.1946  -48.9106  -52.2010 H         1 UNK         0.3005 
    107 H107       29.3527  -46.3239  -53.2840 H         1 UNK         0.1257 
    108 H108       27.5282  -46.4444  -50.8226 H         1 UNK         0.0775 
    109 H109       27.6027  -45.1112  -51.9409 H         1 UNK         0.0775 
    110 H110       28.5831  -43.0567  -50.8048 H         1 UNK         0.0840 
    111 H111       30.2794  -42.9395  -50.4257 H         1 UNK         0.0840 
    112 H112       29.4031  -48.1191  -51.0604 H         1 UNK         0.2987 
    113 H113       31.0406  -49.7073  -51.0112 H         1 UNK         0.0785 
    114 H114       28.8893  -50.9515  -51.4771 H         1 UNK         0.0798 
    115 H115       30.2496  -52.0541  -51.3852 H         1 UNK         0.0798 
    116 H116       29.5863  -51.6095  -52.9529 H         1 UNK         0.0798 
    117 H117       32.0953  -50.0875  -53.6599 H         1 UNK         0.3079 
    118 H118       35.1505  -50.8877  -52.3738 H         1 UNK         0.0794 
    119 H119       35.5367  -52.8193  -53.9379 H         1 UNK         0.0786 
    120 H120       33.8106  -53.1835  -53.8931 H         1 UNK         0.0786 
    121 H121       34.7711  -53.2980  -52.4316 H         1 UNK         0.0786 
    122 H122       34.8983  -49.5118  -54.0509 H         1 UNK         0.3032 
    123 H123       34.6767  -49.5332  -57.0135 H         1 UNK         0.1094 
    124 H124       31.6886  -49.0437  -56.5886 H         1 UNK         0.0794 
    125 H125       32.6385  -48.3302  -57.8910 H         1 UNK         0.0794 
    126 H126       32.4045  -50.0697  -57.8226 H         1 UNK         0.0794 
    127 H127       33.2482  -47.6528  -55.1779 H         1 UNK         0.3016 
@<TRIPOS>BOND
     1    1    2 1    
     2    1   67 1    
     3    1   68 1    
     4    1   69 1    
     5    2    3 2    
     6    2    4 am   BACKBONE|DICT|INTERRES
     7    4    5 1    
     8    4   70 1    
     9    5    6 1    
    10    5   65 1    
    11    5   71 1    
    12    6    7 1    
    13    6   72 1    
    14    6   73 1    
    15    7    8 1    
    16    8    9 1    
    17    8   74 1    
    18    8   75 1    
    19    9   10 ar   
    20    9   14 ar   
    21   10   11 ar   
    22   10   76 1    
    23   11   12 ar   
    24   11   48 1    
    25   12   13 ar   
    26   12   77 1    
    27   13   14 ar   
    28   13   15 1    
    29   14   78 1    
    30   15   16 1    
    31   15   79 1    
    32   15   80 1    
    33   16   17 1    
    34   17   18 1    
    35   17   81 1    
    36   17   82 1    
    37   18   19 1    
    38   18   22 1    
    39   18   83 1    
    40   19   20 am   BACKBONE|DICT|INTERRES
    41   19   21 2    
    42   20   84 1    
    43   20   85 1    
    44   22   23 am   BACKBONE|DICT|INTERRES
    45   22   86 1    
    46   23   24 2    
    47   23   25 1    
    48   25   26 1    
    49   25   27 1    
    50   25   87 1    
    51   26   88 1    
    52   26   89 1    
    53   26   90 1    
    54   27   28 am   BACKBONE|DICT|INTERRES
    55   27   91 1    
    56   28   29 2    
    57   28   30 1    
    58   30   31 1    
    59   30   32 1    
    60   30   92 1    
    61   31   93 1    
    62   31   94 1    
    63   31   95 1    
    64   32   33 am   BACKBONE|DICT|INTERRES
    65   32   96 1    
    66   33   34 2    
    67   33   35 1    
    68   35   36 1    
    69   35   37 1    
    70   35   97 1    
    71   36   98 1    
    72   36   99 1    
    73   36  100 1    
    74   37   38 am   BACKBONE|DICT|INTERRES
    75   37  101 1    
    76   38   39 2    
    77   38   40 1    
    78   40   41 1    
    79   40   42 1    
    80   40  102 1    
    81   41  103 1    
    82   41  104 1    
    83   41  105 1    
    84   42   43 am   BACKBONE|DICT|INTERRES
    85   42  106 1    
    86   43   44 2    
    87   43   45 1    
    88   45   46 1    
    89   45   49 1    
    90   45  107 1    
    91   46   47 1    
    92   46  108 1    
    93   46  109 1    
    94   47   48 1    
    95   48  110 1    
    96   48  111 1    
    97   49   50 am   BACKBONE|DICT|INTERRES
    98   49  112 1    
    99   50   51 2    
   100   50   52 1    
   101   52   53 1    
   102   52   54 1    
   103   52  113 1    
   104   53  114 1    
   105   53  115 1    
   106   53  116 1    
   107   54   55 am   BACKBONE|DICT|INTERRES
   108   54  117 1    
   109   55   56 2    
   110   55   57 1    
   111   57   58 1    
   112   57   59 1    
   113   57  118 1    
   114   58  119 1    
   115   58  120 1    
   116   58  121 1    
   117   59   60 am   BACKBONE|DICT|INTERRES
   118   59  122 1    
   119   60   61 2    
   120   60   62 1    
   121   62   63 1    
   122   62   64 1    
   123   62  123 1    
   124   63  124 1    
   125   63  125 1    
   126   63  126 1    
   127   64   65 am   BACKBONE|DICT|INTERRES
   128   64  127 1    
   129   65   66 2    
@<TRIPOS>SUBSTRUCTURE
     1 UNK         1 GROUP             0       ****    0 ROOT    
