@<TRIPOS>MOLECULE
3R134
127   129    1
SMALL
USER_CHARGES


@<TRIPOS>ATOM
      1 CA         32.4375  -49.8084  -58.0809 C.3       0 UNK        -0.1968 
      2 C          32.7815  -49.1525  -56.7533 C.2       0 UNK         0.4852 
      3 O          32.5376  -49.7449  -55.7027 O.2       0 UNK        -0.5359 
      4 N          33.3619  -47.9430  -56.7895 N.am      1 UNK        -0.4300 
      5 CA         33.6865  -47.1121  -55.6183 C.3       1 UNK         0.0863 
      6 C6         34.2374  -45.7246  -56.0460 C.3       11 UNK        -0.0953 
      7 S7         33.7689  -44.4075  -54.8756 S.3       11 UNK        -0.2369 
      8 C8         32.3447  -43.6864  -55.7578 C.3       11 UNK         0.0226 
      9 C9         31.3627  -42.9070  -54.8857 C.ar      11 UNK        -0.0699 
     10 C10        31.1740  -43.1956  -53.5283 C.ar      11 UNK        -0.0804 
     11 C11        30.1934  -42.5300  -52.7848 C.ar      11 UNK        -0.0871 
     12 C12        29.3897  -41.5753  -53.4136 C.ar      11 UNK        -0.1008 
     13 C13        29.5607  -41.2737  -54.7673 C.ar      11 UNK        -0.0735 
     14 C14        30.5691  -41.9257  -55.4866 C.ar      11 UNK        -0.0945 
     15 C15        28.6324  -40.2526  -55.4274 C.3       11 UNK         0.0169 
     16 S16        28.1275  -40.6643  -57.1372 S.3       11 UNK        -0.2669 
     17 C17        27.7235  -42.4429  -57.0133 C.3       11 UNK        -0.0850 
     18 CA         26.5690  -42.9465  -57.9167 C.3       10 UNK         0.0855 
     19 C          26.8757  -42.7495  -59.4359 C.2       10 UNK         0.5543 
     20 N          27.3246  -43.7662  -60.1643 N.am      10 UNK        -0.7343 
     21 O          26.6773  -41.6615  -59.9707 O.2       10 UNK        -0.5027 
     22 N          26.2584  -44.3311  -57.5377 N.am      10 UNK        -0.4495 
     23 C          25.2678  -45.0895  -58.0203 C.2       10 UNK         0.4903 
     24 O          24.3518  -44.6611  -58.7237 O.2       10 UNK        -0.4860 
     25 CA         25.3416  -46.5882  -57.6618 C.3       9 UNK         0.0227 
     26 CB         24.6268  -47.4834  -58.6945 C.3       9 UNK        -0.1964 
     27 N          26.7157  -47.0613  -57.4304 N.am      9 UNK        -0.4231 
     28 C          27.7513  -47.0465  -58.2868 C.2       9 UNK         0.5014 
     29 O          27.6942  -46.5968  -59.4316 O.2       9 UNK        -0.5270 
     30 CA         29.0935  -47.5892  -57.7614 C.3       8 UNK         0.0284 
     31 CB         29.9142  -46.4464  -57.1422 C.3       8 UNK        -0.1977 
     32 N          28.9286  -48.6637  -56.7784 N.am      8 UNK        -0.4342 
     33 C          28.4075  -49.8693  -57.0537 C.2       8 UNK         0.5039 
     34 O          28.1449  -50.2618  -58.1909 O.2       8 UNK        -0.5547 
     35 CA         28.0757  -50.7679  -55.8530 C.3       7 UNK         0.0281 
     36 CB         29.3083  -51.5674  -55.4018 C.3       7 UNK        -0.1963 
     37 N          27.5349  -49.9863  -54.7364 N.am      7 UNK        -0.4444 
     38 C          26.2875  -49.4927  -54.6992 C.2       7 UNK         0.5104 
     39 O          25.4390  -49.7144  -55.5622 O.2       7 UNK        -0.5100 
     40 CA         25.9205  -48.5820  -53.5135 C.3       6 UNK         0.0396 
     41 CB         25.2615  -49.4032  -52.3942 C.3       6 UNK        -0.1801 
     42 N          27.0650  -47.8508  -52.9653 N.am      6 UNK        -0.4747 
     43 C          27.6945  -46.8325  -53.5724 C.2       6 UNK         0.5012 
     44 O          27.3524  -46.3694  -54.6604 O.2       6 UNK        -0.5003 
     45 CA         28.9533  -46.2890  -52.8613 C.3       5 UNK         0.0782 
     46 C46        28.5584  -45.2158  -51.8148 C.3       11 UNK        -0.0868 
     47 S47        29.9960  -44.5889  -50.8786 S.3       11 UNK        -0.2515 
     48 C48        29.9998  -42.8146  -51.2984 C.3       11 UNK         0.0199 
     49 N          29.7441  -47.3753  -52.2641 N.am      5 UNK        -0.4607 
     50 C          30.2976  -48.3883  -52.9398 C.2       4 UNK         0.5031 
     51 O          30.2395  -48.5024  -54.1648 O.2       4 UNK        -0.5119 
     52 CA         30.8993  -49.5082  -52.0863 C.3       4 UNK         0.0263 
     53 CB         29.7617  -50.4139  -51.5613 C.3       4 UNK        -0.1967 
     54 N          31.8680  -50.2879  -52.8596 N.am      4 UNK        -0.4237 
     55 C          32.6699  -51.2309  -52.3412 C.2       3 UNK         0.4908 
     56 O          32.7026  -51.5229  -51.1449 O.2       3 UNK        -0.5102 
     57 CA         33.6117  -51.9663  -53.3029 C.3       3 UNK         0.0241 
     58 CB         32.8366  -52.8163  -54.3254 C.3       3 UNK        -0.1971 
     59 N          34.4792  -51.0117  -53.9868 N.am      3 UNK        -0.4139 
     60 C          35.6790  -50.6194  -53.5334 C.2       2 UNK         0.5016 
     61 O          36.2230  -51.0945  -52.5354 O.2       2 UNK        -0.5319 
     62 CA         36.4114  -49.5136  -54.3177 C.3       2 UNK         0.0286 
     63 CB         37.4786  -50.1253  -55.2400 C.3       2 UNK        -0.1963 
     64 N          35.5178  -48.6713  -55.1153 N.am      2 UNK        -0.4790 
     65 C          34.6309  -47.8019  -54.6086 C.2       1 UNK         0.5024 
     66 O          34.5217  -47.5639  -53.4054 O.2       1 UNK        -0.4888 
     67 H67        33.0073  -50.7291  -58.2017 H         1 UNK         0.0892 
     68 H68        31.3775  -50.0586  -58.1082 H         1 UNK         0.0892 
     69 H69        32.6540  -49.1573  -58.9274 H         1 UNK         0.0892 
     70 H70        33.5620  -47.5261  -57.6874 H         1 UNK         0.3107 
     71 H71        32.7362  -46.9666  -55.0985 H         1 UNK         0.0773 
     72 H72        33.8611  -45.4468  -57.0319 H         1 UNK         0.0680 
     73 H73        35.3243  -45.7366  -56.1502 H         1 UNK         0.0680 
     74 H74        31.7851  -44.4875  -56.2397 H         1 UNK         0.0650 
     75 H75        32.7276  -43.0488  -56.5562 H         1 UNK         0.0650 
     76 H76        31.7761  -43.9517  -53.0450 H         1 UNK         0.1397 
     77 H77        28.6233  -41.0643  -52.8463 H         1 UNK         0.1363 
     78 H78        30.7085  -41.6992  -56.5347 H         1 UNK         0.1355 
     79 H79        27.7245  -40.1331  -54.8337 H         1 UNK         0.0707 
     80 H80        29.1267  -39.2804  -55.4323 H         1 UNK         0.0707 
     81 H81        28.6302  -43.0131  -57.2234 H         1 UNK         0.1034 
     82 H82        27.4736  -42.6550  -55.9720 H         1 UNK         0.1034 
     83 H83        25.6810  -42.3523  -57.6938 H         1 UNK         0.0482 
     84 H84        27.4452  -44.6929  -59.7676 H         1 UNK         0.3460 
     85 H85        27.5052  -43.6202  -61.1443 H         1 UNK         0.3460 
     86 H86        26.9355  -44.7896  -56.9459 H         1 UNK         0.2989 
     87 H87        24.8210  -46.6992  -56.7095 H         1 UNK         0.0559 
     88 H88        25.0625  -47.3805  -59.6889 H         1 UNK         0.0848 
     89 H89        23.5700  -47.2260  -58.7735 H         1 UNK         0.0848 
     90 H90        24.6827  -48.5345  -58.4103 H         1 UNK         0.0848 
     91 H91        26.9139  -47.3488  -56.4790 H         1 UNK         0.3144 
     92 H92        29.6480  -47.9929  -58.6109 H         1 UNK         0.0727 
     93 H93        29.3883  -45.9630  -56.3191 H         1 UNK         0.0790 
     94 H94        30.1322  -45.6779  -57.8851 H         1 UNK         0.0790 
     95 H95        30.8656  -46.8049  -56.7561 H         1 UNK         0.0790 
     96 H96        29.2210  -48.4704  -55.8235 H         1 UNK         0.3215 
     97 H97        27.3137  -51.4823  -56.1735 H         1 UNK         0.0863 
     98 H98        29.0721  -52.2322  -54.5712 H         1 UNK         0.0808 
     99 H99        30.1244  -50.9169  -55.0923 H         1 UNK         0.0808 
    100 H100       29.6858  -52.1880  -56.2155 H         1 UNK         0.0808 
    101 H101       28.1842  -49.7135  -54.0140 H         1 UNK         0.3118 
    102 H102       25.1925  -47.8512  -53.8728 H         1 UNK         0.0546 
    103 H103       25.9444  -50.1456  -51.9792 H         1 UNK         0.0828 
    104 H104       24.3869  -49.9386  -52.7671 H         1 UNK         0.0828 
    105 H105       24.9228  -48.7639  -51.5789 H         1 UNK         0.0828 
    106 H106       27.4115  -48.1566  -52.0677 H         1 UNK         0.3005 
    107 H107       29.5737  -45.8140  -53.6251 H         1 UNK         0.1257 
    108 H108       27.8490  -45.6230  -51.0916 H         1 UNK         0.0775 
    109 H109       28.0477  -44.3823  -52.3012 H         1 UNK         0.0775 
    110 H110       29.0697  -42.3735  -50.9363 H         1 UNK         0.0840 
    111 H111       30.8044  -42.3281  -50.7457 H         1 UNK         0.0840 
    112 H112       29.8432  -47.3416  -51.2595 H         1 UNK         0.2987 
    113 H113       31.4229  -49.0506  -51.2443 H         1 UNK         0.0785 
    114 H114       28.9938  -49.8358  -51.0462 H         1 UNK         0.0798 
    115 H115       30.1264  -51.1481  -50.8437 H         1 UNK         0.0798 
    116 H116       29.2746  -50.9589  -52.3699 H         1 UNK         0.0798 
    117 H117       31.9230  -50.0570  -53.8516 H         1 UNK         0.3079 
    118 H118       34.2209  -52.6527  -52.7105 H         1 UNK         0.0794 
    119 H119       32.1730  -53.5204  -53.8218 H         1 UNK         0.0786 
    120 H120       33.5169  -53.3998  -54.9457 H         1 UNK         0.0786 
    121 H121       32.2222  -52.2106  -54.9898 H         1 UNK         0.0786 
    122 H122       34.0630  -50.5188  -54.7713 H         1 UNK         0.3032 
    123 H123       36.9133  -48.8772  -53.5850 H         1 UNK         0.1094 
    124 H124       38.0596  -49.3523  -55.7434 H         1 UNK         0.0794 
    125 H125       38.1811  -50.7367  -54.6715 H         1 UNK         0.0794 
    126 H126       37.0345  -50.7651  -56.0037 H         1 UNK         0.0794 
    127 H127       35.5352  -48.8053  -56.1162 H         1 UNK         0.3016 
@<TRIPOS>BOND
     1    1    2 1    
     2    1   67 1    
     3    1   68 1    
     4    1   69 1    
     5    2    3 2    
     6    2    4 am   BACKBONE|DICT|INTERRES
     7    4    5 1    
     8    4   70 1    
     9    5    6 1    
    10    5   65 1    
    11    5   71 1    
    12    6    7 1    
    13    6   72 1    
    14    6   73 1    
    15    7    8 1    
    16    8    9 1    
    17    8   74 1    
    18    8   75 1    
    19    9   10 ar   
    20    9   14 ar   
    21   10   11 ar   
    22   10   76 1    
    23   11   12 ar   
    24   11   48 1    
    25   12   13 ar   
    26   12   77 1    
    27   13   14 ar   
    28   13   15 1    
    29   14   78 1    
    30   15   16 1    
    31   15   79 1    
    32   15   80 1    
    33   16   17 1    
    34   17   18 1    
    35   17   81 1    
    36   17   82 1    
    37   18   19 1    
    38   18   22 1    
    39   18   83 1    
    40   19   20 am   BACKBONE|DICT|INTERRES
    41   19   21 2    
    42   20   84 1    
    43   20   85 1    
    44   22   23 am   BACKBONE|DICT|INTERRES
    45   22   86 1    
    46   23   24 2    
    47   23   25 1    
    48   25   26 1    
    49   25   27 1    
    50   25   87 1    
    51   26   88 1    
    52   26   89 1    
    53   26   90 1    
    54   27   28 am   BACKBONE|DICT|INTERRES
    55   27   91 1    
    56   28   29 2    
    57   28   30 1    
    58   30   31 1    
    59   30   32 1    
    60   30   92 1    
    61   31   93 1    
    62   31   94 1    
    63   31   95 1    
    64   32   33 am   BACKBONE|DICT|INTERRES
    65   32   96 1    
    66   33   34 2    
    67   33   35 1    
    68   35   36 1    
    69   35   37 1    
    70   35   97 1    
    71   36   98 1    
    72   36   99 1    
    73   36  100 1    
    74   37   38 am   BACKBONE|DICT|INTERRES
    75   37  101 1    
    76   38   39 2    
    77   38   40 1    
    78   40   41 1    
    79   40   42 1    
    80   40  102 1    
    81   41  103 1    
    82   41  104 1    
    83   41  105 1    
    84   42   43 am   BACKBONE|DICT|INTERRES
    85   42  106 1    
    86   43   44 2    
    87   43   45 1    
    88   45   46 1    
    89   45   49 1    
    90   45  107 1    
    91   46   47 1    
    92   46  108 1    
    93   46  109 1    
    94   47   48 1    
    95   48  110 1    
    96   48  111 1    
    97   49   50 am   BACKBONE|DICT|INTERRES
    98   49  112 1    
    99   50   51 2    
   100   50   52 1    
   101   52   53 1    
   102   52   54 1    
   103   52  113 1    
   104   53  114 1    
   105   53  115 1    
   106   53  116 1    
   107   54   55 am   BACKBONE|DICT|INTERRES
   108   54  117 1    
   109   55   56 2    
   110   55   57 1    
   111   57   58 1    
   112   57   59 1    
   113   57  118 1    
   114   58  119 1    
   115   58  120 1    
   116   58  121 1    
   117   59   60 am   BACKBONE|DICT|INTERRES
   118   59  122 1    
   119   60   61 2    
   120   60   62 1    
   121   62   63 1    
   122   62   64 1    
   123   62  123 1    
   124   63  124 1    
   125   63  125 1    
   126   63  126 1    
   127   64   65 am   BACKBONE|DICT|INTERRES
   128   64  127 1    
   129   65   66 2    
@<TRIPOS>SUBSTRUCTURE
     1 UNK         1 GROUP             0       ****    0 ROOT    
