@<TRIPOS>MOLECULE
3R134
127   129    1
SMALL
USER_CHARGES


@<TRIPOS>ATOM
      1 CA         37.1637  -44.1207  -52.0530 C.3       0 UNK        -0.1968 
      2 C          36.5294  -45.0154  -53.1078 C.2       0 UNK         0.4852 
      3 O          37.1992  -45.9031  -53.6377 O.2       0 UNK        -0.5359 
      4 N          35.2456  -44.7846  -53.4162 N.am      1 UNK        -0.4300 
      5 CA         34.4651  -45.5490  -54.3988 C.3       1 UNK         0.0863 
      6 C6         33.1464  -44.8334  -54.7739 C.3       11 UNK        -0.0953 
      7 S7         33.4290  -43.2125  -55.5670 S.3       11 UNK        -0.2369 
      8 C8         32.8893  -42.0339  -54.2855 C.3       11 UNK         0.0226 
      9 C9         31.4079  -42.1795  -53.9733 C.ar      11 UNK        -0.0699 
     10 C10        30.9955  -42.8087  -52.7964 C.ar      11 UNK        -0.0804 
     11 C11        29.6375  -42.9980  -52.5319 C.ar      11 UNK        -0.0871 
     12 C12        28.6867  -42.5342  -53.4460 C.ar      11 UNK        -0.1008 
     13 C13        29.0845  -41.8931  -54.6234 C.ar      11 UNK        -0.0735 
     14 C14        30.4492  -41.7052  -54.8721 C.ar      11 UNK        -0.0945 
     15 C15        28.0292  -41.4068  -55.6121 C.3       11 UNK         0.0169 
     16 S16        28.4294  -41.7805  -57.3521 S.3       11 UNK        -0.2669 
     17 C17        28.5761  -43.6002  -57.3197 C.3       11 UNK        -0.0850 
     18 CA         28.6859  -44.1898  -58.7492 C.3       10 UNK         0.0855 
     19 C          30.1117  -44.0200  -59.3441 C.2       10 UNK         0.5543 
     20 N          30.3366  -42.9849  -60.1415 N.am      10 UNK        -0.7343 
     21 O          31.0179  -44.8013  -59.0654 O.2       10 UNK        -0.5027 
     22 N          28.2413  -45.5884  -58.7754 N.am      10 UNK        -0.4495 
     23 C          27.9043  -46.2553  -59.8883 C.2       10 UNK         0.4903 
     24 O          27.8899  -45.7541  -61.0130 O.2       10 UNK        -0.4860 
     25 CA         27.4899  -47.7261  -59.7237 C.3       9 UNK         0.0227 
     26 CB         28.6963  -48.6546  -59.9339 C.3       9 UNK        -0.1964 
     27 N          26.9031  -47.9833  -58.4087 N.am      9 UNK        -0.4231 
     28 C          25.6275  -47.7433  -58.0770 C.2       9 UNK         0.5014 
     29 O          24.7837  -47.3164  -58.8680 O.2       9 UNK        -0.5270 
     30 CA         25.2416  -48.0308  -56.6112 C.3       8 UNK         0.0284 
     31 CB         23.7160  -48.0854  -56.3832 C.3       8 UNK        -0.1977 
     32 N          25.8962  -49.2313  -56.0743 N.am      8 UNK        -0.4342 
     33 C          25.7999  -50.4888  -56.5371 C.2       8 UNK         0.5039 
     34 O          25.0607  -50.8226  -57.4642 O.2       8 UNK        -0.5547 
     35 CA         26.6989  -51.5624  -55.8939 C.3       7 UNK         0.0281 
     36 CB         27.7244  -52.0758  -56.9198 C.3       7 UNK        -0.1963 
     37 N          27.4158  -51.0960  -54.7041 N.am      7 UNK        -0.4444 
     38 C          26.8787  -50.9838  -53.4825 C.2       7 UNK         0.5104 
     39 O          25.7225  -51.3074  -53.2098 O.2       7 UNK        -0.5100 
     40 CA         27.7714  -50.3706  -52.3877 C.3       6 UNK         0.0396 
     41 CB         28.7016  -51.4363  -51.7889 C.3       6 UNK        -0.1801 
     42 N          28.5654  -49.2200  -52.8370 N.am      6 UNK        -0.4747 
     43 C          28.0607  -48.0856  -53.3499 C.2       6 UNK         0.5012 
     44 O          26.8648  -47.9095  -53.5805 O.2       6 UNK        -0.5003 
     45 CA         29.0719  -46.9805  -53.7100 C.3       5 UNK         0.0782 
     46 C46        29.6315  -46.2771  -52.4464 C.3       11 UNK        -0.0868 
     47 S47        28.3546  -45.2834  -51.5933 S.3       11 UNK        -0.2515 
     48 C48        29.2039  -43.7080  -51.2581 C.3       11 UNK         0.0199 
     49 N          30.1232  -47.5534  -54.5539 N.am      5 UNK        -0.4607 
     50 C          29.9508  -47.8453  -55.8523 C.2       4 UNK         0.5031 
     51 O          28.9657  -47.4901  -56.5020 O.2       4 UNK        -0.5119 
     52 CA         31.0140  -48.7188  -56.5433 C.3       4 UNK         0.0263 
     53 CB         31.9432  -47.8792  -57.4309 C.3       4 UNK        -0.1967 
     54 N          31.8072  -49.5206  -55.6082 N.am      4 UNK        -0.4237 
     55 C          31.3343  -50.6078  -54.9804 C.2       3 UNK         0.4908 
     56 O          30.1989  -51.0477  -55.1504 O.2       3 UNK        -0.5102 
     57 CA         32.2494  -51.2987  -53.9549 C.3       3 UNK         0.0241 
     58 CB         33.0965  -52.3833  -54.6383 C.3       3 UNK        -0.1971 
     59 N          33.1265  -50.3810  -53.2258 N.am      3 UNK        -0.4139 
     60 C          32.7238  -49.3270  -52.5023 C.2       2 UNK         0.5016 
     61 O          31.5415  -49.0120  -52.3534 O.2       2 UNK        -0.5319 
     62 CA         33.8234  -48.4408  -51.8873 C.3       2 UNK         0.0286 
     63 CB         35.1901  -49.1492  -51.7508 C.3       2 UNK        -0.1963 
     64 N          33.9945  -47.1709  -52.6067 N.am      2 UNK        -0.4790 
     65 C          34.1821  -46.9909  -53.9264 C.2       1 UNK         0.5024 
     66 O          34.1535  -47.8990  -54.7590 O.2       1 UNK        -0.4888 
     67 H67        38.0256  -43.6015  -52.4712 H         1 UNK         0.0892 
     68 H68        36.4664  -43.3715  -51.6786 H         1 UNK         0.0892 
     69 H69        37.5034  -44.7198  -51.2085 H         1 UNK         0.0892 
     70 H70        34.7592  -44.0252  -52.9640 H         1 UNK         0.3107 
     71 H71        35.0700  -45.6315  -55.3049 H         1 UNK         0.0773 
     72 H72        32.5674  -45.4294  -55.4791 H         1 UNK         0.0680 
     73 H73        32.5128  -44.7264  -53.8953 H         1 UNK         0.0680 
     74 H74        33.4932  -42.1703  -53.3876 H         1 UNK         0.0650 
     75 H75        33.0869  -41.0195  -54.6350 H         1 UNK         0.0650 
     76 H76        31.7346  -43.1710  -52.0951 H         1 UNK         0.1397 
     77 H77        27.6353  -42.6842  -53.2405 H         1 UNK         0.1363 
     78 H78        30.7700  -41.2149  -55.7810 H         1 UNK         0.1355 
     79 H79        27.9195  -40.3272  -55.5018 H         1 UNK         0.0707 
     80 H80        27.0553  -41.8418  -55.3817 H         1 UNK         0.0707 
     81 H81        29.4255  -43.8979  -56.7006 H         1 UNK         0.1034 
     82 H82        27.6874  -43.9889  -56.8194 H         1 UNK         0.1034 
     83 H83        27.9879  -43.6422  -59.3868 H         1 UNK         0.0482 
     84 H84        29.6040  -42.3251  -60.3519 H         1 UNK         0.3460 
     85 H85        31.2585  -42.8529  -60.5265 H         1 UNK         0.3460 
     86 H86        28.3154  -46.1062  -57.9074 H         1 UNK         0.2989 
     87 H87        26.7488  -47.9559  -60.4923 H         1 UNK         0.0559 
     88 H88        29.4927  -48.4500  -59.2193 H         1 UNK         0.0848 
     89 H89        29.1162  -48.5253  -60.9323 H         1 UNK         0.0848 
     90 H90        28.4144  -49.7030  -59.8338 H         1 UNK         0.0848 
     91 H91        27.5495  -48.2304  -57.6662 H         1 UNK         0.3144 
     92 H92        25.6290  -47.1920  -56.0308 H         1 UNK         0.0727 
     93 H93        23.2452  -47.1413  -56.6598 H         1 UNK         0.0790 
     94 H94        23.4794  -48.2696  -55.3352 H         1 UNK         0.0790 
     95 H95        23.2450  -48.8694  -56.9770 H         1 UNK         0.0790 
     96 H96        26.4926  -49.0648  -55.2711 H         1 UNK         0.3215 
     97 H97        26.0549  -52.3970  -55.6086 H         1 UNK         0.0863 
     98 H98        28.3490  -52.8632  -56.4973 H         1 UNK         0.0808 
     99 H99        28.3818  -51.2771  -57.2660 H         1 UNK         0.0808 
    100 H100       27.2283  -52.4928  -57.7972 H         1 UNK         0.0808 
    101 H101       28.4055  -50.8830  -54.8247 H         1 UNK         0.3118 
    102 H102       27.1149  -50.0120  -51.5923 H         1 UNK         0.0546 
    103 H103       29.3607  -51.8644  -52.5436 H         1 UNK         0.0828 
    104 H104       28.1256  -52.2572  -51.3597 H         1 UNK         0.0828 
    105 H105       29.3225  -51.0245  -50.9931 H         1 UNK         0.0828 
    106 H106       29.5691  -49.2702  -52.6863 H         1 UNK         0.3005 
    107 H107       28.5414  -46.2273  -54.2986 H         1 UNK         0.1257 
    108 H108       30.4629  -45.6319  -52.7289 H         1 UNK         0.0775 
    109 H109       30.0420  -46.9940  -51.7343 H         1 UNK         0.0775 
    110 H110       28.5301  -43.0563  -50.7001 H         1 UNK         0.0840 
    111 H111       30.0558  -43.8980  -50.6032 H         1 UNK         0.0840 
    112 H112       30.9222  -47.9384  -54.0655 H         1 UNK         0.2987 
    113 H113       30.4735  -49.4070  -57.1965 H         1 UNK         0.0785 
    114 H114       32.5794  -47.2163  -56.8484 H         1 UNK         0.0798 
    115 H115       31.3705  -47.2588  -58.1205 H         1 UNK         0.0798 
    116 H116       32.5918  -48.5151  -58.0333 H         1 UNK         0.0798 
    117 H117       32.7380  -49.1807  -55.3827 H         1 UNK         0.3079 
    118 H118       31.6079  -51.7839  -53.2179 H         1 UNK         0.0794 
    119 H119       32.4632  -53.0946  -55.1708 H         1 UNK         0.0786 
    120 H120       33.6771  -52.9515  -53.9112 H         1 UNK         0.0786 
    121 H121       33.7900  -51.9569  -55.3643 H         1 UNK         0.0786 
    122 H122       34.1200  -50.5336  -53.3206 H         1 UNK         0.3032 
    123 H123       33.4774  -48.1929  -50.8823 H         1 UNK         0.1094 
    124 H124       35.8891  -48.5343  -51.1837 H         1 UNK         0.0794 
    125 H125       35.0957  -50.0958  -51.2165 H         1 UNK         0.0794 
    126 H126       35.6514  -49.3530  -52.7179 H         1 UNK         0.0794 
    127 H127       34.0121  -46.3466  -52.0232 H         1 UNK         0.3016 
@<TRIPOS>BOND
     1    1    2 1    
     2    1   67 1    
     3    1   68 1    
     4    1   69 1    
     5    2    3 2    
     6    2    4 am   BACKBONE|DICT|INTERRES
     7    4    5 1    
     8    4   70 1    
     9    5    6 1    
    10    5   65 1    
    11    5   71 1    
    12    6    7 1    
    13    6   72 1    
    14    6   73 1    
    15    7    8 1    
    16    8    9 1    
    17    8   74 1    
    18    8   75 1    
    19    9   10 ar   
    20    9   14 ar   
    21   10   11 ar   
    22   10   76 1    
    23   11   12 ar   
    24   11   48 1    
    25   12   13 ar   
    26   12   77 1    
    27   13   14 ar   
    28   13   15 1    
    29   14   78 1    
    30   15   16 1    
    31   15   79 1    
    32   15   80 1    
    33   16   17 1    
    34   17   18 1    
    35   17   81 1    
    36   17   82 1    
    37   18   19 1    
    38   18   22 1    
    39   18   83 1    
    40   19   20 am   BACKBONE|DICT|INTERRES
    41   19   21 2    
    42   20   84 1    
    43   20   85 1    
    44   22   23 am   BACKBONE|DICT|INTERRES
    45   22   86 1    
    46   23   24 2    
    47   23   25 1    
    48   25   26 1    
    49   25   27 1    
    50   25   87 1    
    51   26   88 1    
    52   26   89 1    
    53   26   90 1    
    54   27   28 am   BACKBONE|DICT|INTERRES
    55   27   91 1    
    56   28   29 2    
    57   28   30 1    
    58   30   31 1    
    59   30   32 1    
    60   30   92 1    
    61   31   93 1    
    62   31   94 1    
    63   31   95 1    
    64   32   33 am   BACKBONE|DICT|INTERRES
    65   32   96 1    
    66   33   34 2    
    67   33   35 1    
    68   35   36 1    
    69   35   37 1    
    70   35   97 1    
    71   36   98 1    
    72   36   99 1    
    73   36  100 1    
    74   37   38 am   BACKBONE|DICT|INTERRES
    75   37  101 1    
    76   38   39 2    
    77   38   40 1    
    78   40   41 1    
    79   40   42 1    
    80   40  102 1    
    81   41  103 1    
    82   41  104 1    
    83   41  105 1    
    84   42   43 am   BACKBONE|DICT|INTERRES
    85   42  106 1    
    86   43   44 2    
    87   43   45 1    
    88   45   46 1    
    89   45   49 1    
    90   45  107 1    
    91   46   47 1    
    92   46  108 1    
    93   46  109 1    
    94   47   48 1    
    95   48  110 1    
    96   48  111 1    
    97   49   50 am   BACKBONE|DICT|INTERRES
    98   49  112 1    
    99   50   51 2    
   100   50   52 1    
   101   52   53 1    
   102   52   54 1    
   103   52  113 1    
   104   53  114 1    
   105   53  115 1    
   106   53  116 1    
   107   54   55 am   BACKBONE|DICT|INTERRES
   108   54  117 1    
   109   55   56 2    
   110   55   57 1    
   111   57   58 1    
   112   57   59 1    
   113   57  118 1    
   114   58  119 1    
   115   58  120 1    
   116   58  121 1    
   117   59   60 am   BACKBONE|DICT|INTERRES
   118   59  122 1    
   119   60   61 2    
   120   60   62 1    
   121   62   63 1    
   122   62   64 1    
   123   62  123 1    
   124   63  124 1    
   125   63  125 1    
   126   63  126 1    
   127   64   65 am   BACKBONE|DICT|INTERRES
   128   64  127 1    
   129   65   66 2    
@<TRIPOS>SUBSTRUCTURE
     1 UNK         1 GROUP             0       ****    0 ROOT    
