@<TRIPOS>MOLECULE
3R134
127   129    1
SMALL
USER_CHARGES


@<TRIPOS>ATOM
      1 CA         29.2402  -45.1372  -52.3102 C.3       0 UNK        -0.1968 
      2 C          30.1545  -45.0181  -53.5283 C.2       0 UNK         0.4852 
      3 O          29.6859  -45.2589  -54.6367 O.2       0 UNK        -0.5359 
      4 N          31.4397  -44.6515  -53.3897 N.am      1 UNK        -0.4300 
      5 CA         32.1620  -44.3861  -52.1386 C.3       1 UNK         0.0863 
      6 C6         33.5530  -43.7427  -52.3721 C.3       11 UNK        -0.0953 
      7 S7         33.4172  -41.9893  -52.8593 S.3       11 UNK        -0.2369 
      8 C8         34.2337  -41.9570  -54.4860 C.3       11 UNK         0.0226 
      9 C9         33.4299  -42.7076  -55.5348 C.ar      11 UNK        -0.0699 
     10 C10        33.9086  -43.9078  -56.0653 C.ar      11 UNK        -0.0804 
     11 C11        33.1535  -44.6176  -57.0025 C.ar      11 UNK        -0.0871 
     12 C12        31.9136  -44.1166  -57.4106 C.ar      11 UNK        -0.1008 
     13 C13        31.4267  -42.9126  -56.8932 C.ar      11 UNK        -0.0735 
     14 C14        32.1998  -42.2045  -55.9676 C.ar      11 UNK        -0.0945 
     15 C15        30.0713  -42.3844  -57.3463 C.3       11 UNK         0.0169 
     16 S16        28.9844  -41.9599  -55.9461 S.3       11 UNK        -0.2669 
     17 C17        27.3782  -41.7711  -56.7919 C.3       11 UNK        -0.0850 
     18 CA         26.2227  -42.4936  -56.0506 C.3       10 UNK         0.0855 
     19 C          24.8615  -42.2238  -56.7603 C.2       10 UNK         0.5543 
     20 N          24.1622  -43.2241  -57.2845 N.am      10 UNK        -0.7343 
     21 O          24.4297  -41.0759  -56.8333 O.2       10 UNK        -0.5027 
     22 N          26.5181  -43.9159  -55.8070 N.am      10 UNK        -0.4495 
     23 C          25.8818  -44.6800  -54.9108 C.2       10 UNK         0.4903 
     24 O          25.0453  -44.2418  -54.1187 O.2       10 UNK        -0.4860 
     25 CA         26.2241  -46.1852  -54.9063 C.3       9 UNK         0.0227 
     26 CB         25.1011  -47.0346  -54.2751 C.3       9 UNK        -0.1964 
     27 N          26.5956  -46.7238  -56.2228 N.am      9 UNK        -0.4231 
     28 C          25.8750  -46.6870  -57.3563 C.2       9 UNK         0.5014 
     29 O          24.7808  -46.1314  -57.4620 O.2       9 UNK        -0.5270 
     30 CA         26.4843  -47.3809  -58.5833 C.3       8 UNK         0.0284 
     31 CB         27.6079  -46.5202  -59.1876 C.3       8 UNK        -0.1977 
     32 N          27.0109  -48.6976  -58.2209 N.am      8 UNK        -0.4342 
     33 C          26.3680  -49.8613  -58.3969 C.2       8 UNK         0.5039 
     34 O          25.2957  -49.9694  -58.9933 O.2       8 UNK        -0.5547 
     35 CA         27.0208  -51.1251  -57.7984 C.3       7 UNK         0.0281 
     36 CB         27.9185  -51.8123  -58.8395 C.3       7 UNK        -0.1963 
     37 N          27.8053  -50.8439  -56.5933 N.am      7 UNK        -0.4444 
     38 C          27.2812  -50.4210  -55.4323 C.2       7 UNK         0.5104 
     39 O          26.0728  -50.4181  -55.2000 O.2       7 UNK        -0.5100 
     40 CA         28.2474  -49.8719  -54.3605 C.3       6 UNK         0.0396 
     41 CB         28.3180  -50.8264  -53.1592 C.3       6 UNK        -0.1801 
     42 N          29.6065  -49.5972  -54.8434 N.am      6 UNK        -0.4747 
     43 C          29.9285  -48.7167  -55.8070 C.2       6 UNK         0.5012 
     44 O          29.0958  -48.0115  -56.3767 O.2       6 UNK        -0.5003 
     45 CA         31.3970  -48.6606  -56.2765 C.3       5 UNK         0.0782 
     46 C46        32.0817  -47.3922  -55.7273 C.3       11 UNK        -0.0868 
     47 S47        33.8129  -47.2154  -56.2773 S.3       11 UNK        -0.2515 
     48 C48        33.6701  -45.9348  -57.5635 C.3       11 UNK         0.0199 
     49 N          32.1409  -49.8838  -55.9608 N.am      5 UNK        -0.4607 
     50 C          31.8722  -51.0935  -56.4725 C.2       4 UNK         0.5031 
     51 O          30.9789  -51.2956  -57.2961 O.2       4 UNK        -0.5119 
     52 CA         32.6989  -52.2858  -55.9572 C.3       4 UNK         0.0263 
     53 CB         33.7887  -52.6577  -56.9752 C.3       4 UNK        -0.1967 
     54 N          33.3188  -52.0783  -54.6432 N.am      4 UNK        -0.4237 
     55 C          32.6663  -51.8173  -53.5011 C.2       3 UNK         0.4908 
     56 O          31.4419  -51.7014  -53.4272 O.2       3 UNK        -0.5102 
     57 CA         33.5106  -51.6396  -52.2239 C.3       3 UNK         0.0241 
     58 CB         35.0363  -51.7744  -52.4429 C.3       3 UNK        -0.1971 
     59 N          33.2065  -50.3810  -51.5321 N.am      3 UNK        -0.4139 
     60 C          33.3000  -49.1416  -52.0359 C.2       2 UNK         0.5016 
     61 O          33.6273  -48.8845  -53.1966 O.2       2 UNK        -0.5319 
     62 CA         33.0254  -47.9963  -51.0541 C.3       2 UNK         0.0286 
     63 CB         34.2100  -47.8382  -50.0764 C.3       2 UNK        -0.1963 
     64 N          32.8059  -46.7454  -51.7843 N.am      2 UNK        -0.4790 
     65 C          32.2779  -45.6382  -51.2458 C.2       1 UNK         0.5024 
     66 O          31.8715  -45.5780  -50.0848 O.2       1 UNK        -0.4888 
     67 H67        28.2036  -44.9746  -52.6027 H         1 UNK         0.0892 
     68 H68        29.3143  -46.1344  -51.8773 H         1 UNK         0.0892 
     69 H69        29.4677  -44.4024  -51.5402 H         1 UNK         0.0892 
     70 H70        31.9818  -44.5238  -54.2332 H         1 UNK         0.3107 
     71 H71        31.5742  -43.6609  -51.5729 H         1 UNK         0.0773 
     72 H72        34.1251  -44.3049  -53.1119 H         1 UNK         0.0680 
     73 H73        34.1481  -43.7603  -51.4566 H         1 UNK         0.0680 
     74 H74        35.2414  -42.3653  -54.3927 H         1 UNK         0.0650 
     75 H75        34.3504  -40.9191  -54.8008 H         1 UNK         0.0650 
     76 H76        34.8618  -44.3019  -55.7394 H         1 UNK         0.1397 
     77 H77        31.3219  -44.6701  -58.1270 H         1 UNK         0.1363 
     78 H78        31.8302  -41.2735  -55.5596 H         1 UNK         0.1355 
     79 H79        30.2191  -41.5013  -57.9692 H         1 UNK         0.0707 
     80 H80        29.5707  -43.1286  -57.9680 H         1 UNK         0.0707 
     81 H81        27.4499  -42.1359  -57.8180 H         1 UNK         0.1034 
     82 H82        27.1711  -40.7018  -56.8688 H         1 UNK         0.1034 
     83 H83        26.1360  -42.0212  -55.0701 H         1 UNK         0.0482 
     84 H84        24.4901  -44.1832  -57.2301 H         1 UNK         0.3460 
     85 H85        23.2839  -43.0241  -57.7352 H         1 UNK         0.3460 
     86 H86        27.2256  -44.3379  -56.3895 H         1 UNK         0.2989 
     87 H87        27.1098  -46.2956  -54.2811 H         1 UNK         0.0559 
     88 H88        24.1695  -46.9508  -54.8357 H         1 UNK         0.0848 
     89 H89        24.8954  -46.7198  -53.2514 H         1 UNK         0.0848 
     90 H90        25.3723  -48.0877  -54.2338 H         1 UNK         0.0848 
     91 H91        27.5209  -47.1498  -56.2631 H         1 UNK         0.3144 
     92 H92        25.6993  -47.4855  -59.3354 H         1 UNK         0.0727 
     93 H93        28.0145  -46.9804  -60.0883 H         1 UNK         0.0790 
     94 H94        28.4324  -46.3697  -58.4895 H         1 UNK         0.0790 
     95 H95        27.2344  -45.5345  -59.4686 H         1 UNK         0.0790 
     96 H96        27.8689  -48.6960  -57.6778 H         1 UNK         0.3215 
     97 H97        26.2187  -51.8151  -57.5271 H         1 UNK         0.0863 
     98 H98        28.3382  -52.7405  -58.4514 H         1 UNK         0.0808 
     99 H99        28.7480  -51.1722  -59.1433 H         1 UNK         0.0808 
    100 H100       27.3528  -52.0628  -59.7380 H         1 UNK         0.0808 
    101 H101       28.8135  -50.8622  -56.6907 H         1 UNK         0.3118 
    102 H102       27.8324  -48.9235  -54.0140 H         1 UNK         0.0546 
    103 H103       28.7104  -51.8030  -53.4449 H         1 UNK         0.0828 
    104 H104       27.3290  -50.9866  -52.7276 H         1 UNK         0.0828 
    105 H105       28.9547  -50.4274  -52.3694 H         1 UNK         0.0828 
    106 H106       30.3445  -50.1702  -54.4463 H         1 UNK         0.3005 
    107 H107       31.3665  -48.5767  -57.3653 H         1 UNK         0.1257 
    108 H108       31.5157  -46.5109  -56.0272 H         1 UNK         0.0775 
    109 H109       32.0684  -47.3923  -54.6374 H         1 UNK         0.0775 
    110 H110       34.6509  -45.7724  -58.0124 H         1 UNK         0.0840 
    111 H111       33.0241  -46.3027  -58.3622 H         1 UNK         0.0840 
    112 H112       32.8780  -49.7867  -55.2731 H         1 UNK         0.2987 
    113 H113       32.0138  -53.1309  -55.8638 H         1 UNK         0.0785 
    114 H114       34.3197  -53.5623  -56.6780 H         1 UNK         0.0798 
    115 H115       34.5217  -51.8583  -57.0914 H         1 UNK         0.0798 
    116 H116       33.3560  -52.8480  -57.9586 H         1 UNK         0.0798 
    117 H117       34.3264  -52.1325  -54.6079 H         1 UNK         0.3079 
    118 H118       33.2034  -52.4420  -51.5515 H         1 UNK         0.0794 
    119 H119       35.2966  -52.7516  -52.8519 H         1 UNK         0.0786 
    120 H120       35.5734  -51.6773  -51.4991 H         1 UNK         0.0786 
    121 H121       35.4257  -51.0108  -53.1178 H         1 UNK         0.0786 
    122 H122       32.8993  -50.4824  -50.5748 H         1 UNK         0.3032 
    123 H123       32.1183  -48.2406  -50.4962 H         1 UNK         0.1094 
    124 H124       35.1255  -47.5611  -50.6006 H         1 UNK         0.0794 
    125 H125       34.0142  -47.0759  -49.3224 H         1 UNK         0.0794 
    126 H126       34.4110  -48.7664  -49.5400 H         1 UNK         0.0794 
    127 H127       33.0952  -46.7679  -52.7550 H         1 UNK         0.3016 
@<TRIPOS>BOND
     1    1    2 1    
     2    1   67 1    
     3    1   68 1    
     4    1   69 1    
     5    2    3 2    
     6    2    4 am   BACKBONE|DICT|INTERRES
     7    4    5 1    
     8    4   70 1    
     9    5    6 1    
    10    5   65 1    
    11    5   71 1    
    12    6    7 1    
    13    6   72 1    
    14    6   73 1    
    15    7    8 1    
    16    8    9 1    
    17    8   74 1    
    18    8   75 1    
    19    9   10 ar   
    20    9   14 ar   
    21   10   11 ar   
    22   10   76 1    
    23   11   12 ar   
    24   11   48 1    
    25   12   13 ar   
    26   12   77 1    
    27   13   14 ar   
    28   13   15 1    
    29   14   78 1    
    30   15   16 1    
    31   15   79 1    
    32   15   80 1    
    33   16   17 1    
    34   17   18 1    
    35   17   81 1    
    36   17   82 1    
    37   18   19 1    
    38   18   22 1    
    39   18   83 1    
    40   19   20 am   BACKBONE|DICT|INTERRES
    41   19   21 2    
    42   20   84 1    
    43   20   85 1    
    44   22   23 am   BACKBONE|DICT|INTERRES
    45   22   86 1    
    46   23   24 2    
    47   23   25 1    
    48   25   26 1    
    49   25   27 1    
    50   25   87 1    
    51   26   88 1    
    52   26   89 1    
    53   26   90 1    
    54   27   28 am   BACKBONE|DICT|INTERRES
    55   27   91 1    
    56   28   29 2    
    57   28   30 1    
    58   30   31 1    
    59   30   32 1    
    60   30   92 1    
    61   31   93 1    
    62   31   94 1    
    63   31   95 1    
    64   32   33 am   BACKBONE|DICT|INTERRES
    65   32   96 1    
    66   33   34 2    
    67   33   35 1    
    68   35   36 1    
    69   35   37 1    
    70   35   97 1    
    71   36   98 1    
    72   36   99 1    
    73   36  100 1    
    74   37   38 am   BACKBONE|DICT|INTERRES
    75   37  101 1    
    76   38   39 2    
    77   38   40 1    
    78   40   41 1    
    79   40   42 1    
    80   40  102 1    
    81   41  103 1    
    82   41  104 1    
    83   41  105 1    
    84   42   43 am   BACKBONE|DICT|INTERRES
    85   42  106 1    
    86   43   44 2    
    87   43   45 1    
    88   45   46 1    
    89   45   49 1    
    90   45  107 1    
    91   46   47 1    
    92   46  108 1    
    93   46  109 1    
    94   47   48 1    
    95   48  110 1    
    96   48  111 1    
    97   49   50 am   BACKBONE|DICT|INTERRES
    98   49  112 1    
    99   50   51 2    
   100   50   52 1    
   101   52   53 1    
   102   52   54 1    
   103   52  113 1    
   104   53  114 1    
   105   53  115 1    
   106   53  116 1    
   107   54   55 am   BACKBONE|DICT|INTERRES
   108   54  117 1    
   109   55   56 2    
   110   55   57 1    
   111   57   58 1    
   112   57   59 1    
   113   57  118 1    
   114   58  119 1    
   115   58  120 1    
   116   58  121 1    
   117   59   60 am   BACKBONE|DICT|INTERRES
   118   59  122 1    
   119   60   61 2    
   120   60   62 1    
   121   62   63 1    
   122   62   64 1    
   123   62  123 1    
   124   63  124 1    
   125   63  125 1    
   126   63  126 1    
   127   64   65 am   BACKBONE|DICT|INTERRES
   128   64  127 1    
   129   65   66 2    
@<TRIPOS>SUBSTRUCTURE
     1 UNK         1 GROUP             0       ****    0 ROOT    
