@<TRIPOS>MOLECULE
3R134
127   129    1
SMALL
USER_CHARGES


@<TRIPOS>ATOM
      1 CA         37.8368  -45.0459  -50.2180 C.3       0 UNK        -0.1968 
      2 C          37.1264  -45.5902  -51.4487 C.2       0 UNK         0.4852 
      3 O          37.7275  -46.3435  -52.2159 O.2       0 UNK        -0.5359 
      4 N          35.8562  -45.2089  -51.6423 N.am      1 UNK        -0.4300 
      5 CA         35.0034  -45.6366  -52.7592 C.3       1 UNK         0.0863 
      6 C6         33.6924  -44.8216  -52.8242 C.3       11 UNK        -0.0953 
      7 S7         33.9922  -43.0462  -53.1165 S.3       11 UNK        -0.2369 
      8 C8         33.2134  -42.8028  -54.7519 C.3       11 UNK         0.0226 
      9 C9         31.7336  -43.1839  -54.8151 C.ar      11 UNK        -0.0699 
     10 C10        30.8876  -43.0396  -53.7105 C.ar      11 UNK        -0.0804 
     11 C11        29.5481  -43.4311  -53.7769 C.ar      11 UNK        -0.0871 
     12 C12        29.0322  -43.9206  -54.9815 C.ar      11 UNK        -0.1008 
     13 C13        29.8648  -44.0670  -56.0961 C.ar      11 UNK        -0.0735 
     14 C14        31.2109  -43.6999  -56.0034 C.ar      11 UNK        -0.0945 
     15 C15        29.3393  -44.6692  -57.3903 C.3       11 UNK         0.0169 
     16 S16        29.3467  -43.4628  -58.7540 S.3       11 UNK        -0.2669 
     17 C17        27.6612  -42.7591  -58.6595 C.3       11 UNK        -0.0850 
     18 CA         26.7278  -43.2790  -59.7876 C.3       10 UNK         0.0855 
     19 C          27.0927  -42.6675  -61.1746 C.2       10 UNK         0.5543 
     20 N          27.5234  -43.4497  -62.1569 N.am      10 UNK        -0.7343 
     21 O          26.9709  -41.4592  -61.3614 O.2       10 UNK        -0.5027 
     22 N          26.6158  -44.7453  -59.7376 N.am      10 UNK        -0.4495 
     23 C          25.6991  -45.4938  -60.3626 C.2       10 UNK         0.4903 
     24 O          24.8183  -45.0456  -61.0964 O.2       10 UNK        -0.4860 
     25 CA         25.7714  -47.0082  -60.0953 C.3       9 UNK         0.0227 
     26 CB         26.7959  -47.6759  -61.0271 C.3       9 UNK        -0.1964 
     27 N          26.0957  -47.3276  -58.6996 N.am      9 UNK        -0.4231 
     28 C          25.3023  -47.0525  -57.6529 C.2       9 UNK         0.5014 
     29 O          24.2000  -46.5111  -57.7600 O.2       9 UNK        -0.5270 
     30 CA         25.8325  -47.4333  -56.2561 C.3       8 UNK         0.0284 
     31 CB         24.7041  -47.5260  -55.2055 C.3       8 UNK        -0.1977 
     32 N          26.6591  -48.6477  -56.2444 N.am      8 UNK        -0.4342 
     33 C          26.2824  -49.8945  -56.5706 C.2       8 UNK         0.5039 
     34 O          25.1695  -50.1949  -57.0040 O.2       8 UNK        -0.5547 
     35 CA         27.3283  -51.0018  -56.3576 C.3       7 UNK         0.0281 
     36 CB         28.3598  -51.0057  -57.4980 C.3       7 UNK        -0.1963 
     37 N          28.0136  -50.8753  -55.0687 N.am      7 UNK        -0.4444 
     38 C          27.4361  -51.0763  -53.8737 C.2       7 UNK         0.5104 
     39 O          26.2886  -51.4981  -53.7268 O.2       7 UNK        -0.5100 
     40 CA         28.2706  -50.7166  -52.6291 C.3       6 UNK         0.0396 
     41 CB         29.2431  -51.8510  -52.2743 C.3       6 UNK        -0.1801 
     42 N          28.9981  -49.4544  -52.8029 N.am      6 UNK        -0.4747 
     43 C          28.3930  -48.2599  -52.9093 C.2       6 UNK         0.5012 
     44 O          27.1863  -48.1026  -52.7296 O.2       6 UNK        -0.5003 
     45 CA         29.2487  -47.0479  -53.3331 C.3       5 UNK         0.0782 
     46 C46        29.5699  -46.0932  -52.1530 C.3       11 UNK        -0.0868 
     47 S47        28.1664  -44.9544  -51.8469 S.3       11 UNK        -0.2515 
     48 C48        28.6808  -43.3355  -52.5278 C.3       11 UNK         0.0199 
     49 N          30.4396  -47.4539  -54.0867 N.am      5 UNK        -0.4607 
     50 C          30.4033  -47.7792  -55.3873 C.2       4 UNK         0.5031 
     51 O          29.3764  -47.7525  -56.0677 O.2       4 UNK        -0.5119 
     52 CA         31.7127  -48.2692  -56.0259 C.3       4 UNK         0.0263 
     53 CB         32.6343  -47.0923  -56.3800 C.3       4 UNK        -0.1967 
     54 N          32.4249  -49.2292  -55.1793 N.am      4 UNK        -0.4237 
     55 C          31.9526  -50.4502  -54.8841 C.2       3 UNK         0.4908 
     56 O          30.8825  -50.8846  -55.3086 O.2       3 UNK        -0.5102 
     57 CA         32.7829  -51.3352  -53.9384 C.3       3 UNK         0.0241 
     58 CB         33.7144  -52.2502  -54.7487 C.3       3 UNK        -0.1971 
     59 N          33.5700  -50.6013  -52.9468 N.am      3 UNK        -0.4139 
     60 C          33.1032  -49.7109  -52.0600 C.2       2 UNK         0.5016 
     61 O          31.9208  -49.3704  -51.9794 O.2       2 UNK        -0.5319 
     62 CA         34.1448  -49.0486  -51.1370 C.3       2 UNK         0.0286 
     63 CB         35.4845  -49.8149  -51.0515 C.3       2 UNK        -0.1963 
     64 N          34.4050  -47.6479  -51.4910 N.am      2 UNK        -0.4790 
     65 C          34.6836  -47.1431  -52.7055 C.2       1 UNK         0.5024 
     66 O          34.6987  -47.8004  -53.7483 O.2       1 UNK        -0.4888 
     67 H67        38.7211  -44.4822  -50.5141 H         1 UNK         0.0892 
     68 H68        37.1951  -44.3867  -49.6337 H         1 UNK         0.0892 
     69 H69        38.1548  -45.8664  -49.5753 H         1 UNK         0.0892 
     70 H70        35.4305  -44.5612  -50.9945 H         1 UNK         0.3107 
     71 H71        35.5588  -45.4628  -53.6838 H         1 UNK         0.0773 
     72 H72        33.0410  -45.2100  -53.6073 H         1 UNK         0.0680 
     73 H73        33.1282  -44.9197  -51.8948 H         1 UNK         0.0680 
     74 H74        33.3149  -41.7543  -55.0338 H         1 UNK         0.0650 
     75 H75        33.7809  -43.3789  -55.4846 H         1 UNK         0.0650 
     76 H76        31.2777  -42.6455  -52.7827 H         1 UNK         0.1397 
     77 H77        27.9943  -44.2188  -55.0367 H         1 UNK         0.1363 
     78 H78        31.8536  -43.8207  -56.8648 H         1 UNK         0.1355 
     79 H79        28.3413  -45.0872  -57.2528 H         1 UNK         0.0707 
     80 H80        29.9770  -45.5077  -57.6714 H         1 UNK         0.0707 
     81 H81        27.2256  -42.9835  -57.6846 H         1 UNK         0.1034 
     82 H82        27.7369  -41.6705  -58.6926 H         1 UNK         0.1034 
     83 H83        25.7294  -42.8961  -59.5677 H         1 UNK         0.0482 
     84 H84        27.6255  -44.4402  -62.0092 H         1 UNK         0.3460 
     85 H85        27.7518  -43.0435  -63.0504 H         1 UNK         0.3460 
     86 H86        27.3203  -45.2134  -59.1901 H         1 UNK         0.2989 
     87 H87        24.7883  -47.4307  -60.3138 H         1 UNK         0.0559 
     88 H88        27.8101  -47.3204  -60.8409 H         1 UNK         0.0848 
     89 H89        26.5646  -47.4679  -62.0728 H         1 UNK         0.0848 
     90 H90        26.7931  -48.7596  -60.9078 H         1 UNK         0.0848 
     91 H91        26.9751  -47.7909  -58.5222 H         1 UNK         0.3144 
     92 H92        26.4945  -46.6207  -55.9533 H         1 UNK         0.0727 
     93 H93        24.1939  -46.5687  -55.0921 H         1 UNK         0.0790 
     94 H94        25.0897  -47.8014  -54.2253 H         1 UNK         0.0790 
     95 H95        23.9519  -48.2642  -55.4853 H         1 UNK         0.0790 
     96 H96        27.6330  -48.5009  -55.9864 H         1 UNK         0.3215 
     97 H97        26.8056  -51.9608  -56.3690 H         1 UNK         0.0863 
     98 H98        29.0531  -51.8412  -57.3991 H         1 UNK         0.0808 
     99 H99        28.9489  -50.0881  -57.5180 H         1 UNK         0.0808 
    100 H100       27.8704  -51.1031  -58.4680 H         1 UNK         0.0808 
    101 H101       28.9974  -50.6186  -55.0976 H         1 UNK         0.3118 
    102 H102       27.5863  -50.5901  -51.7874 H         1 UNK         0.0546 
    103 H103       29.8474  -52.1464  -53.1302 H         1 UNK         0.0828 
    104 H104       28.6960  -52.7373  -51.9511 H         1 UNK         0.0828 
    105 H105       29.9144  -51.5685  -51.4630 H         1 UNK         0.0828 
    106 H106       30.0084  -49.5012  -52.8786 H         1 UNK         0.3005 
    107 H107       28.6206  -46.4917  -54.0319 H         1 UNK         0.1257 
    108 H108       30.4675  -45.5098  -52.3573 H         1 UNK         0.0775 
    109 H109       29.7892  -46.6501  -51.2400 H         1 UNK         0.0775 
    110 H110       27.7881  -42.7517  -52.7563 H         1 UNK         0.0840 
    111 H111       29.2019  -42.7870  -51.7415 H         1 UNK         0.0840 
    112 H112       31.2959  -47.5758  -53.5649 H         1 UNK         0.2987 
    113 H113       31.4515  -48.7794  -56.9558 H         1 UNK         0.0785 
    114 H114       32.9160  -46.5162  -55.5000 H         1 UNK         0.0798 
    115 H115       32.1448  -46.4095  -57.0742 H         1 UNK         0.0798 
    116 H116       33.5504  -47.4367  -56.8598 H         1 UNK         0.0798 
    117 H117       33.2995  -48.9229  -54.7640 H         1 UNK         0.3079 
    118 H118       32.0894  -51.9684  -53.3852 H         1 UNK         0.0794 
    119 H119       33.1508  -52.8320  -55.4798 H         1 UNK         0.0786 
    120 H120       34.2338  -52.9605  -54.1050 H         1 UNK         0.0786 
    121 H121       34.4657  -51.6791  -55.2958 H         1 UNK         0.0786 
    122 H122       34.5649  -50.7726  -52.9511 H         1 UNK         0.3032 
    123 H123       33.6999  -49.0474  -50.1404 H         1 UNK         0.1094 
    124 H124       36.1286  -49.3829  -50.2852 H         1 UNK         0.0794 
    125 H125       35.3293  -50.8603  -50.7804 H         1 UNK         0.0794 
    126 H126       36.0387  -49.7877  -51.9907 H         1 UNK         0.0794 
    127 H127       34.3922  -46.9998  -50.7159 H         1 UNK         0.3016 
@<TRIPOS>BOND
     1    1    2 1    
     2    1   67 1    
     3    1   68 1    
     4    1   69 1    
     5    2    3 2    
     6    2    4 am   BACKBONE|DICT|INTERRES
     7    4    5 1    
     8    4   70 1    
     9    5    6 1    
    10    5   65 1    
    11    5   71 1    
    12    6    7 1    
    13    6   72 1    
    14    6   73 1    
    15    7    8 1    
    16    8    9 1    
    17    8   74 1    
    18    8   75 1    
    19    9   10 ar   
    20    9   14 ar   
    21   10   11 ar   
    22   10   76 1    
    23   11   12 ar   
    24   11   48 1    
    25   12   13 ar   
    26   12   77 1    
    27   13   14 ar   
    28   13   15 1    
    29   14   78 1    
    30   15   16 1    
    31   15   79 1    
    32   15   80 1    
    33   16   17 1    
    34   17   18 1    
    35   17   81 1    
    36   17   82 1    
    37   18   19 1    
    38   18   22 1    
    39   18   83 1    
    40   19   20 am   BACKBONE|DICT|INTERRES
    41   19   21 2    
    42   20   84 1    
    43   20   85 1    
    44   22   23 am   BACKBONE|DICT|INTERRES
    45   22   86 1    
    46   23   24 2    
    47   23   25 1    
    48   25   26 1    
    49   25   27 1    
    50   25   87 1    
    51   26   88 1    
    52   26   89 1    
    53   26   90 1    
    54   27   28 am   BACKBONE|DICT|INTERRES
    55   27   91 1    
    56   28   29 2    
    57   28   30 1    
    58   30   31 1    
    59   30   32 1    
    60   30   92 1    
    61   31   93 1    
    62   31   94 1    
    63   31   95 1    
    64   32   33 am   BACKBONE|DICT|INTERRES
    65   32   96 1    
    66   33   34 2    
    67   33   35 1    
    68   35   36 1    
    69   35   37 1    
    70   35   97 1    
    71   36   98 1    
    72   36   99 1    
    73   36  100 1    
    74   37   38 am   BACKBONE|DICT|INTERRES
    75   37  101 1    
    76   38   39 2    
    77   38   40 1    
    78   40   41 1    
    79   40   42 1    
    80   40  102 1    
    81   41  103 1    
    82   41  104 1    
    83   41  105 1    
    84   42   43 am   BACKBONE|DICT|INTERRES
    85   42  106 1    
    86   43   44 2    
    87   43   45 1    
    88   45   46 1    
    89   45   49 1    
    90   45  107 1    
    91   46   47 1    
    92   46  108 1    
    93   46  109 1    
    94   47   48 1    
    95   48  110 1    
    96   48  111 1    
    97   49   50 am   BACKBONE|DICT|INTERRES
    98   49  112 1    
    99   50   51 2    
   100   50   52 1    
   101   52   53 1    
   102   52   54 1    
   103   52  113 1    
   104   53  114 1    
   105   53  115 1    
   106   53  116 1    
   107   54   55 am   BACKBONE|DICT|INTERRES
   108   54  117 1    
   109   55   56 2    
   110   55   57 1    
   111   57   58 1    
   112   57   59 1    
   113   57  118 1    
   114   58  119 1    
   115   58  120 1    
   116   58  121 1    
   117   59   60 am   BACKBONE|DICT|INTERRES
   118   59  122 1    
   119   60   61 2    
   120   60   62 1    
   121   62   63 1    
   122   62   64 1    
   123   62  123 1    
   124   63  124 1    
   125   63  125 1    
   126   63  126 1    
   127   64   65 am   BACKBONE|DICT|INTERRES
   128   64  127 1    
   129   65   66 2    
@<TRIPOS>SUBSTRUCTURE
     1 UNK         1 GROUP             0       ****    0 ROOT    
