@<TRIPOS>MOLECULE
3R134
127   129    1
SMALL
USER_CHARGES


@<TRIPOS>ATOM
      1 CA         36.7720  -43.6032  -50.2523 C.3       0 UNK        -0.1968 
      2 C          36.9960  -44.4452  -51.4998 C.2       0 UNK         0.4852 
      3 O          37.7669  -44.0483  -52.3751 O.2       0 UNK        -0.5359 
      4 N          36.3322  -45.6017  -51.5844 N.am      1 UNK        -0.4300 
      5 CA         36.4061  -46.5517  -52.6923 C.3       1 UNK         0.0863 
      6 C6         35.6659  -46.0611  -53.9672 C.3       11 UNK        -0.0953 
      7 S7         33.8809  -45.7377  -53.7326 S.3       11 UNK        -0.2369 
      8 C8         33.7973  -43.9637  -54.1181 C.3       11 UNK         0.0226 
      9 C9         32.3763  -43.5306  -54.4425 C.ar      11 UNK        -0.0699 
     10 C10        31.4863  -43.1993  -53.4171 C.ar      11 UNK        -0.0804 
     11 C11        30.1907  -42.7659  -53.7173 C.ar      11 UNK        -0.0871 
     12 C12        29.8001  -42.6399  -55.0526 C.ar      11 UNK        -0.1008 
     13 C13        30.6640  -43.0110  -56.0860 C.ar      11 UNK        -0.0735 
     14 C14        31.9542  -43.4501  -55.7736 C.ar      11 UNK        -0.0945 
     15 C15        30.2064  -42.9396  -57.5366 C.3       11 UNK         0.0169 
     16 S16        28.9922  -44.2424  -57.9290 S.3       11 UNK        -0.2669 
     17 C17        27.4249  -43.4497  -57.4146 C.3       11 UNK        -0.0850 
     18 CA         26.1679  -43.9565  -58.1654 C.3       10 UNK         0.0855 
     19 C          26.1719  -43.5813  -59.6753 C.2       10 UNK         0.5543 
     20 N          25.9178  -42.3190  -59.9945 N.am      10 UNK        -0.7343 
     21 O          26.4244  -44.4034  -60.5537 O.2       10 UNK        -0.5027 
     22 N          25.9329  -45.3814  -57.9020 N.am      10 UNK        -0.4495 
     23 C          24.7678  -46.0118  -58.0965 C.2       10 UNK         0.4903 
     24 O          23.7444  -45.4490  -58.4908 O.2       10 UNK        -0.4860 
     25 CA         24.7327  -47.5145  -57.7561 C.3       9 UNK         0.0227 
     26 CB         23.5358  -48.2544  -58.3908 C.3       9 UNK        -0.1964 
     27 N          25.9939  -48.2039  -58.0462 N.am      9 UNK        -0.4231 
     28 C          26.5829  -48.3859  -59.2391 C.2       9 UNK         0.5014 
     29 O          26.1097  -48.0042  -60.3097 O.2       9 UNK        -0.5270 
     30 CA         27.9313  -49.1294  -59.2449 C.3       8 UNK         0.0284 
     31 CB         29.0793  -48.1711  -59.6095 C.3       8 UNK        -0.1977 
     32 N          28.2097  -49.7603  -57.9492 N.am      8 UNK        -0.4342 
     33 C          27.8911  -51.0272  -57.6496 C.2       8 UNK         0.5039 
     34 O          27.4243  -51.8245  -58.4643 O.2       8 UNK        -0.5547 
     35 CA         28.1053  -51.4918  -56.1995 C.3       7 UNK         0.0281 
     36 CB         29.5446  -51.9875  -55.9852 C.3       7 UNK        -0.1963 
     37 N          27.7664  -50.4880  -55.1853 N.am      7 UNK        -0.4444 
     38 C          26.5178  -50.0787  -54.9130 C.2       7 UNK         0.5104 
     39 O          25.5344  -50.3959  -55.5807 O.2       7 UNK        -0.5100 
     40 CA         26.3239  -49.1767  -53.6848 C.3       6 UNK         0.0396 
     41 CB         26.4153  -50.0041  -52.3921 C.3       6 UNK        -0.1801 
     42 N          27.3199  -48.1097  -53.6442 N.am      6 UNK        -0.4747 
     43 C          27.1165  -46.8512  -54.0619 C.2       6 UNK         0.5012 
     44 O          26.0378  -46.4296  -54.4799 O.2       6 UNK        -0.5003 
     45 CA         28.3464  -45.9147  -54.0400 C.3       5 UNK         0.0782 
     46 C46        28.4847  -45.2077  -52.6607 C.3       11 UNK        -0.0868 
     47 S47        27.7319  -43.5454  -52.6630 S.3       11 UNK        -0.2515 
     48 C48        29.2003  -42.4597  -52.6013 C.3       11 UNK         0.0199 
     49 N          29.5904  -46.5926  -54.4224 N.am      5 UNK        -0.4607 
     50 C          29.7807  -47.3311  -55.5254 C.2       4 UNK         0.5031 
     51 O          28.9304  -47.5028  -56.3976 O.2       4 UNK        -0.5119 
     52 CA         31.1101  -48.0964  -55.6253 C.3       4 UNK         0.0263 
     53 CB         32.1278  -47.2981  -56.4523 C.3       4 UNK        -0.1967 
     54 N          31.6778  -48.4718  -54.3204 N.am      4 UNK        -0.4237 
     55 C          31.0548  -49.2396  -53.4092 C.2       3 UNK         0.4908 
     56 O          29.9115  -49.6755  -53.5658 O.2       3 UNK        -0.5102 
     57 CA         31.7957  -49.5327  -52.0893 C.3       3 UNK         0.0241 
     58 CB         31.2537  -50.7933  -51.3816 C.3       3 UNK        -0.1971 
     59 N          33.2571  -49.6000  -52.2087 N.am      3 UNK        -0.4139 
     60 C          33.9897  -50.4342  -52.9603 C.2       2 UNK         0.5016 
     61 O          33.5091  -51.2592  -53.7392 O.2       2 UNK        -0.5319 
     62 CA         35.5231  -50.3097  -52.8146 C.3       2 UNK         0.0286 
     63 CB         36.2866  -51.2728  -53.7438 C.3       2 UNK        -0.1963 
     64 N          36.0059  -48.9443  -53.0531 N.am      2 UNK        -0.4790 
     65 C          35.8948  -47.9169  -52.2004 C.2       1 UNK         0.5024 
     66 O          35.3763  -48.0166  -51.0834 O.2       1 UNK        -0.4888 
     67 H67        36.0678  -44.0722  -49.5652 H         1 UNK         0.0892 
     68 H68        37.7138  -43.4555  -49.7246 H         1 UNK         0.0892 
     69 H69        36.3771  -42.6253  -50.5265 H         1 UNK         0.0892 
     70 H70        35.7422  -45.9213  -50.8253 H         1 UNK         0.3107 
     71 H71        37.4611  -46.6909  -52.9379 H         1 UNK         0.0773 
     72 H72        35.7706  -46.7852  -54.7766 H         1 UNK         0.0680 
     73 H73        36.1549  -45.1595  -54.3372 H         1 UNK         0.0680 
     74 H74        34.4469  -43.7399  -54.9656 H         1 UNK         0.0650 
     75 H75        34.1851  -43.3932  -53.2729 H         1 UNK         0.0650 
     76 H76        31.8041  -43.2863  -52.3870 H         1 UNK         0.1397 
     77 H77        28.8057  -42.2856  -55.2804 H         1 UNK         0.1363 
     78 H78        32.6342  -43.7268  -56.5676 H         1 UNK         0.1355 
     79 H79        31.0597  -43.0588  -58.2059 H         1 UNK         0.0707 
     80 H80        29.7938  -41.9530  -57.7510 H         1 UNK         0.0707 
     81 H81        27.2870  -43.6201  -56.3470 H         1 UNK         0.1034 
     82 H82        27.5091  -42.3678  -57.5288 H         1 UNK         0.1034 
     83 H83        25.3169  -43.4292  -57.7287 H         1 UNK         0.0482 
     84 H84        25.7080  -41.6312  -59.2881 H         1 UNK         0.3460 
     85 H85        25.9253  -42.0504  -60.9662 H         1 UNK         0.3460 
     86 H86        26.7395  -45.9180  -57.6163 H         1 UNK         0.2989 
     87 H87        24.6093  -47.5708  -56.6736 H         1 UNK         0.0559 
     88 H88        23.5494  -48.1899  -59.4791 H         1 UNK         0.0848 
     89 H89        22.5897  -47.8300  -58.0528 H         1 UNK         0.0848 
     90 H90        23.5321  -49.3092  -58.1156 H         1 UNK         0.0848 
     91 H91        26.4754  -48.5746  -57.2397 H         1 UNK         0.3144 
     92 H92        27.8795  -49.8932  -60.0237 H         1 UNK         0.0727 
     93 H93        29.1197  -47.3067  -58.9468 H         1 UNK         0.0790 
     94 H94        28.9539  -47.7880  -60.6230 H         1 UNK         0.0790 
     95 H95        30.0464  -48.6723  -59.5694 H         1 UNK         0.0790 
     96 H96        28.5703  -49.1411  -57.2260 H         1 UNK         0.3215 
     97 H97        27.4411  -52.3442  -56.0390 H         1 UNK         0.0863 
     98 H98        29.6802  -52.3908  -54.9814 H         1 UNK         0.0808 
     99 H99        30.2763  -51.1937  -56.1249 H         1 UNK         0.0808 
    100 H100       29.7909  -52.7831  -56.6897 H         1 UNK         0.0808 
    101 H101       28.5266  -50.1829  -54.5784 H         1 UNK         0.3118 
    102 H102       25.3198  -48.7500  -53.7365 H         1 UNK         0.0546 
    103 H103       25.6850  -50.8144  -52.3949 H         1 UNK         0.0828 
    104 H104       26.2123  -49.3894  -51.5152 H         1 UNK         0.0828 
    105 H105       27.4012  -50.4533  -52.2637 H         1 UNK         0.0828 
    106 H106       28.2598  -48.3838  -53.3812 H         1 UNK         0.3005 
    107 H107       28.1836  -45.1663  -54.8170 H         1 UNK         0.1257 
    108 H108       29.5327  -45.1086  -52.3757 H         1 UNK         0.0775 
    109 H109       28.0370  -45.7900  -51.8524 H         1 UNK         0.0775 
    110 H110       28.8786  -41.4205  -52.6817 H         1 UNK         0.0840 
    111 H111       29.6724  -42.5604  -51.6227 H         1 UNK         0.0840 
    112 H112       30.3609  -46.5096  -53.7769 H         1 UNK         0.2987 
    113 H113       30.9091  -49.0227  -56.1632 H         1 UNK         0.0785 
    114 H114       32.2979  -46.3067  -56.0359 H         1 UNK         0.0798 
    115 H115       31.7658  -47.1548  -57.4715 H         1 UNK         0.0798 
    116 H116       33.0875  -47.8109  -56.5170 H         1 UNK         0.0798 
    117 H117       32.6050  -48.1301  -54.1109 H         1 UNK         0.3079 
    118 H118       31.5881  -48.6802  -51.4411 H         1 UNK         0.0794 
    119 H119       31.3692  -51.6835  -52.0011 H         1 UNK         0.0786 
    120 H120       30.1918  -50.6920  -51.1537 H         1 UNK         0.0786 
    121 H121       31.7687  -50.9717  -50.4377 H         1 UNK         0.0786 
    122 H122       33.7784  -48.9501  -51.6256 H         1 UNK         0.3032 
    123 H123       35.7623  -50.5878  -51.7852 H         1 UNK         0.1094 
    124 H124       37.3630  -51.2114  -53.5822 H         1 UNK         0.0794 
    125 H125       35.9940  -52.3077  -53.5608 H         1 UNK         0.0794 
    126 H126       36.0911  -51.0597  -54.7956 H         1 UNK         0.0794 
    127 H127       36.4181  -48.7745  -53.9597 H         1 UNK         0.3016 
@<TRIPOS>BOND
     1    1    2 1    
     2    1   67 1    
     3    1   68 1    
     4    1   69 1    
     5    2    3 2    
     6    2    4 am   BACKBONE|DICT|INTERRES
     7    4    5 1    
     8    4   70 1    
     9    5    6 1    
    10    5   65 1    
    11    5   71 1    
    12    6    7 1    
    13    6   72 1    
    14    6   73 1    
    15    7    8 1    
    16    8    9 1    
    17    8   74 1    
    18    8   75 1    
    19    9   10 ar   
    20    9   14 ar   
    21   10   11 ar   
    22   10   76 1    
    23   11   12 ar   
    24   11   48 1    
    25   12   13 ar   
    26   12   77 1    
    27   13   14 ar   
    28   13   15 1    
    29   14   78 1    
    30   15   16 1    
    31   15   79 1    
    32   15   80 1    
    33   16   17 1    
    34   17   18 1    
    35   17   81 1    
    36   17   82 1    
    37   18   19 1    
    38   18   22 1    
    39   18   83 1    
    40   19   20 am   BACKBONE|DICT|INTERRES
    41   19   21 2    
    42   20   84 1    
    43   20   85 1    
    44   22   23 am   BACKBONE|DICT|INTERRES
    45   22   86 1    
    46   23   24 2    
    47   23   25 1    
    48   25   26 1    
    49   25   27 1    
    50   25   87 1    
    51   26   88 1    
    52   26   89 1    
    53   26   90 1    
    54   27   28 am   BACKBONE|DICT|INTERRES
    55   27   91 1    
    56   28   29 2    
    57   28   30 1    
    58   30   31 1    
    59   30   32 1    
    60   30   92 1    
    61   31   93 1    
    62   31   94 1    
    63   31   95 1    
    64   32   33 am   BACKBONE|DICT|INTERRES
    65   32   96 1    
    66   33   34 2    
    67   33   35 1    
    68   35   36 1    
    69   35   37 1    
    70   35   97 1    
    71   36   98 1    
    72   36   99 1    
    73   36  100 1    
    74   37   38 am   BACKBONE|DICT|INTERRES
    75   37  101 1    
    76   38   39 2    
    77   38   40 1    
    78   40   41 1    
    79   40   42 1    
    80   40  102 1    
    81   41  103 1    
    82   41  104 1    
    83   41  105 1    
    84   42   43 am   BACKBONE|DICT|INTERRES
    85   42  106 1    
    86   43   44 2    
    87   43   45 1    
    88   45   46 1    
    89   45   49 1    
    90   45  107 1    
    91   46   47 1    
    92   46  108 1    
    93   46  109 1    
    94   47   48 1    
    95   48  110 1    
    96   48  111 1    
    97   49   50 am   BACKBONE|DICT|INTERRES
    98   49  112 1    
    99   50   51 2    
   100   50   52 1    
   101   52   53 1    
   102   52   54 1    
   103   52  113 1    
   104   53  114 1    
   105   53  115 1    
   106   53  116 1    
   107   54   55 am   BACKBONE|DICT|INTERRES
   108   54  117 1    
   109   55   56 2    
   110   55   57 1    
   111   57   58 1    
   112   57   59 1    
   113   57  118 1    
   114   58  119 1    
   115   58  120 1    
   116   58  121 1    
   117   59   60 am   BACKBONE|DICT|INTERRES
   118   59  122 1    
   119   60   61 2    
   120   60   62 1    
   121   62   63 1    
   122   62   64 1    
   123   62  123 1    
   124   63  124 1    
   125   63  125 1    
   126   63  126 1    
   127   64   65 am   BACKBONE|DICT|INTERRES
   128   64  127 1    
   129   65   66 2    
@<TRIPOS>SUBSTRUCTURE
     1 UNK         1 GROUP             0       ****    0 ROOT    
