@<TRIPOS>MOLECULE
3R134
127   129    1
SMALL
USER_CHARGES


@<TRIPOS>ATOM
      1 CA         34.4759  -45.1734  -46.8147 C.3       0 UNK        -0.1968 
      2 C          34.8243  -44.7714  -48.2405 C.2       0 UNK         0.4852 
      3 O          35.1904  -43.6191  -48.4781 O.2       0 UNK        -0.5359 
      4 N          34.7193  -45.7118  -49.1842 N.am      1 UNK        -0.4300 
      5 CA         35.0271  -45.5389  -50.6030 C.3       1 UNK         0.0863 
      6 C6         33.9729  -44.6874  -51.3675 C.3       11 UNK        -0.0953 
      7 S7         32.2769  -45.3734  -51.3514 S.3       11 UNK        -0.2369 
      8 C8         31.2952  -43.9201  -51.8688 C.3       11 UNK         0.0226 
      9 C9         30.8956  -43.9596  -53.3416 C.ar      11 UNK        -0.0699 
     10 C10        31.8560  -44.1469  -54.3394 C.ar      11 UNK        -0.0804 
     11 C11        31.4872  -44.2154  -55.6842 C.ar      11 UNK        -0.0871 
     12 C12        30.1448  -44.0651  -56.0400 C.ar      11 UNK        -0.1008 
     13 C13        29.1723  -43.8625  -55.0568 C.ar      11 UNK        -0.0735 
     14 C14        29.5544  -43.8061  -53.7113 C.ar      11 UNK        -0.0945 
     15 C15        27.7008  -43.7815  -55.4374 C.3       11 UNK         0.0169 
     16 S16        27.2326  -42.1409  -56.0672 S.3       11 UNK        -0.2669 
     17 C17        27.2657  -42.3924  -57.8783 C.3       11 UNK        -0.0850 
     18 CA         25.8389  -42.6250  -58.4616 C.3       10 UNK         0.0855 
     19 C          25.7561  -42.4000  -60.0044 C.2       10 UNK         0.5543 
     20 N          24.8438  -43.0525  -60.7141 N.am      10 UNK        -0.7343 
     21 O          26.4990  -41.5968  -60.5639 O.2       10 UNK        -0.5027 
     22 N          25.2324  -43.8801  -57.9725 N.am      10 UNK        -0.4495 
     23 C          25.6141  -45.1244  -58.2965 C.2       10 UNK         0.4903 
     24 O          26.4894  -45.3772  -59.1262 O.2       10 UNK        -0.4860 
     25 CA         24.9055  -46.2536  -57.5225 C.3       9 UNK         0.0227 
     26 CB         23.3872  -46.2911  -57.8020 C.3       9 UNK        -0.1964 
     27 N          25.5293  -47.5695  -57.7167 N.am      9 UNK        -0.4231 
     28 C          25.5080  -48.3613  -58.8009 C.2       9 UNK         0.5014 
     29 O          24.8530  -48.1263  -59.8180 O.2       9 UNK        -0.5270 
     30 CA         26.3636  -49.6467  -58.7632 C.3       8 UNK         0.0284 
     31 CB         27.5639  -49.5133  -59.7144 C.3       8 UNK        -0.1977 
     32 N          26.8491  -50.0087  -57.4266 N.am      8 UNK        -0.4342 
     33 C          26.0864  -50.5175  -56.4484 C.2       8 UNK         0.5039 
     34 O          24.8969  -50.8043  -56.5870 O.2       8 UNK        -0.5547 
     35 CA         26.7513  -50.7033  -55.0721 C.3       7 UNK         0.0281 
     36 CB         27.4476  -52.0705  -54.9803 C.3       7 UNK        -0.1963 
     37 N          27.7105  -49.6424  -54.7516 N.am      7 UNK        -0.4444 
     38 C          27.3974  -48.3476  -54.5977 C.2       7 UNK         0.5104 
     39 O          26.2506  -47.9056  -54.6582 O.2       7 UNK        -0.5100 
     40 CA         28.5687  -47.3719  -54.4161 C.3       6 UNK         0.0396 
     41 CB         29.0824  -47.3680  -52.9685 C.3       6 UNK        -0.1801 
     42 N          29.6575  -47.6532  -55.3569 N.am      6 UNK        -0.4747 
     43 C          29.5720  -47.4385  -56.6800 C.2       6 UNK         0.5012 
     44 O          28.5979  -46.9134  -57.2145 O.2       6 UNK        -0.5003 
     45 CA         30.7221  -47.9443  -57.5753 C.3       5 UNK         0.0782 
     46 C46        31.6541  -46.8120  -58.0734 C.3       11 UNK        -0.0868 
     47 S47        32.9101  -46.2565  -56.8702 S.3       11 UNK        -0.2515 
     48 C48        32.5489  -44.4771  -56.7379 C.3       11 UNK         0.0199 
     49 N          31.4493  -49.0674  -56.9791 N.am      5 UNK        -0.4607 
     50 C          30.9478  -50.3038  -56.8679 C.2       4 UNK         0.5031 
     51 O          29.8398  -50.6309  -57.2943 O.2       4 UNK        -0.5119 
     52 CA         31.8038  -51.3208  -56.0967 C.3       4 UNK         0.0263 
     53 CB         32.9798  -51.8125  -56.9551 C.3       4 UNK        -0.1967 
     54 N          32.3074  -50.7837  -54.8283 N.am      4 UNK        -0.4237 
     55 C          31.5398  -50.3733  -53.8115 C.2       3 UNK         0.4908 
     56 O          30.3105  -50.4163  -53.8384 O.2       3 UNK        -0.5102 
     57 CA         32.2298  -49.7916  -52.5645 C.3       3 UNK         0.0241 
     58 CB         32.5536  -50.9042  -51.5492 C.3       3 UNK        -0.1971 
     59 N          33.4019  -48.9404  -52.8208 N.am      3 UNK        -0.4139 
     60 C          34.6041  -49.2817  -53.3085 C.2       2 UNK         0.5016 
     61 O          34.8717  -50.4032  -53.7420 O.2       2 UNK        -0.5319 
     62 CA         35.6970  -48.1942  -53.3388 C.3       2 UNK         0.0286 
     63 CB         36.0098  -47.7869  -54.7879 C.3       2 UNK        -0.1963 
     64 N          35.3964  -46.9845  -52.5602 N.am      2 UNK        -0.4790 
     65 C          35.3023  -46.9240  -51.2235 C.2       1 UNK         0.5024 
     66 O          35.4267  -47.9094  -50.4908 O.2       1 UNK        -0.4888 
     67 H67        35.3383  -45.0336  -46.1635 H         1 UNK         0.0892 
     68 H68        33.6609  -44.5550  -46.4396 H         1 UNK         0.0892 
     69 H69        34.1670  -46.2166  -46.7493 H         1 UNK         0.0892 
     70 H70        34.4777  -46.6640  -48.9383 H         1 UNK         0.3107 
     71 H71        35.9808  -45.0098  -50.6609 H         1 UNK         0.0773 
     72 H72        34.2896  -44.5235  -52.3966 H         1 UNK         0.0680 
     73 H73        33.9388  -43.6921  -50.9230 H         1 UNK         0.0680 
     74 H74        31.8417  -42.9976  -51.6703 H         1 UNK         0.0650 
     75 H75        30.4048  -43.8840  -51.2396 H         1 UNK         0.0650 
     76 H76        32.8946  -44.2662  -54.0741 H         1 UNK         0.1397 
     77 H77        29.8512  -44.1366  -57.0777 H         1 UNK         0.1363 
     78 H78        28.8010  -43.6639  -52.9487 H         1 UNK         0.1355 
     79 H79        27.4731  -44.5523  -56.1733 H         1 UNK         0.0707 
     80 H80        27.0771  -44.0066  -54.5710 H         1 UNK         0.0707 
     81 H81        27.9331  -43.2131  -58.1438 H         1 UNK         0.1034 
     82 H82        27.7168  -41.4949  -58.3048 H         1 UNK         0.1034 
     83 H83        25.2042  -41.8336  -58.0612 H         1 UNK         0.0482 
     84 H84        24.2301  -43.7143  -60.2669 H         1 UNK         0.3460 
     85 H85        24.7846  -42.8968  -61.7080 H         1 UNK         0.3460 
     86 H86        24.4959  -43.7622  -57.2921 H         1 UNK         0.2989 
     87 H87        25.0410  -46.0328  -56.4626 H         1 UNK         0.0559 
     88 H88        22.8966  -45.3838  -57.4488 H         1 UNK         0.0848 
     89 H89        22.9114  -47.1294  -57.2928 H         1 UNK         0.0848 
     90 H90        23.1693  -46.3788  -58.8667 H         1 UNK         0.0848 
     91 H91        26.1338  -47.8559  -56.9572 H         1 UNK         0.3144 
     92 H92        25.7368  -50.4650  -59.1240 H         1 UNK         0.0727 
     93 H93        28.2045  -50.3950  -59.6828 H         1 UNK         0.0790 
     94 H94        28.1696  -48.6413  -59.4700 H         1 UNK         0.0790 
     95 H95        27.2290  -49.3919  -60.7454 H         1 UNK         0.0790 
     96 H96        27.8402  -49.8874  -57.2475 H         1 UNK         0.3215 
     97 H97        25.9612  -50.6715  -54.3188 H         1 UNK         0.0863 
     98 H98        27.8602  -52.2387  -53.9853 H         1 UNK         0.0808 
     99 H99        28.2637  -52.1585  -55.6980 H         1 UNK         0.0808 
    100 H100       26.7455  -52.8804  -55.1825 H         1 UNK         0.0808 
    101 H101       28.6810  -49.9230  -54.6236 H         1 UNK         0.3118 
    102 H102       28.1929  -46.3734  -54.6306 H         1 UNK         0.0546 
    103 H103       29.3110  -48.3695  -52.6080 H         1 UNK         0.0828 
    104 H104       28.3290  -46.9538  -52.2978 H         1 UNK         0.0828 
    105 H105       29.9778  -46.7563  -52.8645 H         1 UNK         0.0828 
    106 H106       30.4767  -48.1154  -54.9932 H         1 UNK         0.3005 
    107 H107       30.2313  -48.3345  -58.4690 H         1 UNK         0.1257 
    108 H108       32.1984  -47.1666  -58.9499 H         1 UNK         0.0775 
    109 H109       31.0665  -45.9640  -58.4297 H         1 UNK         0.0775 
    110 H110       33.4673  -43.9544  -56.4660 H         1 UNK         0.0840 
    111 H111       32.2508  -44.0721  -57.7060 H         1 UNK         0.0840 
    112 H112       32.3626  -48.8609  -56.6012 H         1 UNK         0.2987 
    113 H113       31.1672  -52.1773  -55.8648 H         1 UNK         0.0785 
    114 H114       33.5344  -52.6031  -56.4492 H         1 UNK         0.0798 
    115 H115       33.6801  -51.0085  -57.1852 H         1 UNK         0.0798 
    116 H116       32.6271  -52.2211  -57.9032 H         1 UNK         0.0798 
    117 H117       33.3156  -50.7443  -54.6925 H         1 UNK         0.3079 
    118 H118       31.5020  -49.1322  -52.0905 H         1 UNK         0.0794 
    119 H119       31.6536  -51.4586  -51.2797 H         1 UNK         0.0786 
    120 H120       32.9678  -50.4914  -50.6291 H         1 UNK         0.0786 
    121 H121       33.2702  -51.6243  -51.9455 H         1 UNK         0.0786 
    122 H122       33.2963  -47.9761  -52.5371 H         1 UNK         0.3032 
    123 H123       36.5945  -48.6484  -52.9123 H         1 UNK         0.1094 
    124 H124       35.1588  -47.2975  -55.2606 H         1 UNK         0.0794 
    125 H125       36.8587  -47.1044  -54.8349 H         1 UNK         0.0794 
    126 H126       36.2643  -48.6564  -55.3958 H         1 UNK         0.0794 
    127 H127       35.2809  -46.1323  -53.0898 H         1 UNK         0.3016 
@<TRIPOS>BOND
     1    1    2 1    
     2    1   67 1    
     3    1   68 1    
     4    1   69 1    
     5    2    3 2    
     6    2    4 am   BACKBONE|DICT|INTERRES
     7    4    5 1    
     8    4   70 1    
     9    5    6 1    
    10    5   65 1    
    11    5   71 1    
    12    6    7 1    
    13    6   72 1    
    14    6   73 1    
    15    7    8 1    
    16    8    9 1    
    17    8   74 1    
    18    8   75 1    
    19    9   10 ar   
    20    9   14 ar   
    21   10   11 ar   
    22   10   76 1    
    23   11   12 ar   
    24   11   48 1    
    25   12   13 ar   
    26   12   77 1    
    27   13   14 ar   
    28   13   15 1    
    29   14   78 1    
    30   15   16 1    
    31   15   79 1    
    32   15   80 1    
    33   16   17 1    
    34   17   18 1    
    35   17   81 1    
    36   17   82 1    
    37   18   19 1    
    38   18   22 1    
    39   18   83 1    
    40   19   20 am   BACKBONE|DICT|INTERRES
    41   19   21 2    
    42   20   84 1    
    43   20   85 1    
    44   22   23 am   BACKBONE|DICT|INTERRES
    45   22   86 1    
    46   23   24 2    
    47   23   25 1    
    48   25   26 1    
    49   25   27 1    
    50   25   87 1    
    51   26   88 1    
    52   26   89 1    
    53   26   90 1    
    54   27   28 am   BACKBONE|DICT|INTERRES
    55   27   91 1    
    56   28   29 2    
    57   28   30 1    
    58   30   31 1    
    59   30   32 1    
    60   30   92 1    
    61   31   93 1    
    62   31   94 1    
    63   31   95 1    
    64   32   33 am   BACKBONE|DICT|INTERRES
    65   32   96 1    
    66   33   34 2    
    67   33   35 1    
    68   35   36 1    
    69   35   37 1    
    70   35   97 1    
    71   36   98 1    
    72   36   99 1    
    73   36  100 1    
    74   37   38 am   BACKBONE|DICT|INTERRES
    75   37  101 1    
    76   38   39 2    
    77   38   40 1    
    78   40   41 1    
    79   40   42 1    
    80   40  102 1    
    81   41  103 1    
    82   41  104 1    
    83   41  105 1    
    84   42   43 am   BACKBONE|DICT|INTERRES
    85   42  106 1    
    86   43   44 2    
    87   43   45 1    
    88   45   46 1    
    89   45   49 1    
    90   45  107 1    
    91   46   47 1    
    92   46  108 1    
    93   46  109 1    
    94   47   48 1    
    95   48  110 1    
    96   48  111 1    
    97   49   50 am   BACKBONE|DICT|INTERRES
    98   49  112 1    
    99   50   51 2    
   100   50   52 1    
   101   52   53 1    
   102   52   54 1    
   103   52  113 1    
   104   53  114 1    
   105   53  115 1    
   106   53  116 1    
   107   54   55 am   BACKBONE|DICT|INTERRES
   108   54  117 1    
   109   55   56 2    
   110   55   57 1    
   111   57   58 1    
   112   57   59 1    
   113   57  118 1    
   114   58  119 1    
   115   58  120 1    
   116   58  121 1    
   117   59   60 am   BACKBONE|DICT|INTERRES
   118   59  122 1    
   119   60   61 2    
   120   60   62 1    
   121   62   63 1    
   122   62   64 1    
   123   62  123 1    
   124   63  124 1    
   125   63  125 1    
   126   63  126 1    
   127   64   65 am   BACKBONE|DICT|INTERRES
   128   64  127 1    
   129   65   66 2    
@<TRIPOS>SUBSTRUCTURE
     1 UNK         1 GROUP             0       ****    0 ROOT    
