@<TRIPOS>MOLECULE
3R134
127   129    1
SMALL
USER_CHARGES


@<TRIPOS>ATOM
      1 CA         35.9068  -42.3185  -47.8742 C.3       0 UNK        -0.1968 
      2 C          35.9307  -43.4932  -48.8413 C.2       0 UNK         0.4852 
      3 O          36.4531  -44.5558  -48.4995 O.2       0 UNK        -0.5359 
      4 N          35.3788  -43.3067  -50.0468 N.am      1 UNK        -0.4300 
      5 CA         35.2393  -44.3377  -51.0792 C.3       1 UNK         0.0863 
      6 C6         35.0395  -43.7247  -52.4885 C.3       11 UNK        -0.0953 
      7 S7         33.7179  -42.4682  -52.5993 S.3       11 UNK        -0.2369 
      8 C8         33.7462  -42.0893  -54.3803 C.3       11 UNK         0.0226 
      9 C9         32.9583  -43.1197  -55.1732 C.ar      11 UNK        -0.0699 
     10 C10        33.5876  -44.2646  -55.6710 C.ar      11 UNK        -0.0804 
     11 C11        32.8481  -45.2442  -56.3380 C.ar      11 UNK        -0.0871 
     12 C12        31.4779  -45.0564  -56.5349 C.ar      11 UNK        -0.1008 
     13 C13        30.8423  -43.9011  -56.0726 C.ar      11 UNK        -0.0735 
     14 C14        31.5897  -42.9352  -55.3921 C.ar      11 UNK        -0.0945 
     15 C15        29.3544  -43.6943  -56.3181 C.3       11 UNK         0.0169 
     16 S16        28.4059  -43.5850  -54.7680 S.3       11 UNK        -0.2669 
     17 C17        26.7285  -43.2981  -55.4296 C.3       11 UNK        -0.0850 
     18 CA         25.6489  -44.2712  -54.8690 C.3       10 UNK         0.0855 
     19 C          24.2279  -43.9174  -55.4076 C.2       10 UNK         0.5543 
     20 N          23.4217  -44.8675  -55.8678 N.am      10 UNK        -0.7343 
     21 O          23.8324  -42.7546  -55.3756 O.2       10 UNK        -0.5027 
     22 N          25.9993  -45.7011  -54.9630 N.am      10 UNK        -0.4495 
     23 C          26.2922  -46.3814  -56.0776 C.2       10 UNK         0.4903 
     24 O          26.4362  -45.8585  -57.1847 O.2       10 UNK        -0.4860 
     25 CA         26.4192  -47.9147  -55.9456 C.3       9 UNK         0.0227 
     26 CB         25.8387  -48.5010  -54.6386 C.3       9 UNK        -0.1964 
     27 N          25.8699  -48.6042  -57.1156 N.am      9 UNK        -0.4231 
     28 C          24.6253  -48.5017  -57.6087 C.2       9 UNK         0.5014 
     29 O          23.7126  -47.9047  -57.0329 O.2       9 UNK        -0.5270 
     30 CA         24.3509  -49.1324  -58.9895 C.3       8 UNK         0.0284 
     31 CB         23.7135  -48.1041  -59.9418 C.3       8 UNK        -0.1977 
     32 N          25.5679  -49.6557  -59.6195 N.am      8 UNK        -0.4342 
     33 C          25.9547  -50.9371  -59.6013 C.2       8 UNK         0.5039 
     34 O          25.2913  -51.8490  -59.1063 O.2       8 UNK        -0.5547 
     35 CA         27.3288  -51.2549  -60.2220 C.3       7 UNK         0.0281 
     36 CB         27.1767  -51.5978  -61.7131 C.3       7 UNK        -0.1963 
     37 N          28.3359  -50.1945  -60.0652 N.am      7 UNK        -0.4444 
     38 C          28.7822  -49.7303  -58.8900 C.2       7 UNK         0.5104 
     39 O          28.3127  -50.0660  -57.8018 O.2       7 UNK        -0.5100 
     40 CA         29.9025  -48.6806  -58.9366 C.3       6 UNK         0.0396 
     41 CB         29.3116  -47.2647  -58.8570 C.3       6 UNK        -0.1801 
     42 N          30.8238  -48.8952  -57.8184 N.am      6 UNK        -0.4747 
     43 C          31.8539  -49.7566  -57.8527 C.2       6 UNK         0.5012 
     44 O          32.2456  -50.2999  -58.8867 O.2       6 UNK        -0.5003 
     45 CA         32.5522  -50.1095  -56.5183 C.3       5 UNK         0.0782 
     46 C46        33.8611  -49.2955  -56.3055 C.3       11 UNK        -0.0868 
     47 S47        33.6355  -47.7014  -55.4365 S.3       11 UNK        -0.2515 
     48 C48        33.5182  -46.5223  -56.8124 C.3       11 UNK         0.0199 
     49 N          31.6472  -50.0035  -55.3731 N.am      5 UNK        -0.4607 
     50 C          30.5501  -50.7366  -55.1560 C.2       4 UNK         0.5031 
     51 O          30.2999  -51.7750  -55.7680 O.2       4 UNK        -0.5119 
     52 CA         29.5579  -50.2220  -54.0905 C.3       4 UNK         0.0263 
     53 CB         29.3656  -51.2603  -52.9729 C.3       4 UNK        -0.1967 
     54 N          29.9135  -48.9346  -53.4764 N.am      4 UNK        -0.4237 
     55 C          29.9970  -47.7420  -54.0817 C.2       3 UNK         0.4908 
     56 O          29.8010  -47.5769  -55.2843 O.2       3 UNK        -0.5102 
     57 CA         30.4348  -46.5489  -53.2141 C.3       3 UNK         0.0241 
     58 CB         29.3047  -46.0998  -52.2663 C.3       3 UNK        -0.1971 
     59 N          31.7026  -46.7701  -52.4994 N.am      3 UNK        -0.4139 
     60 C          31.9634  -47.6361  -51.5081 C.2       2 UNK         0.5016 
     61 O          31.1203  -48.3852  -51.0117 O.2       2 UNK        -0.5319 
     62 CA         33.4144  -47.7307  -51.0058 C.3       2 UNK         0.0286 
     63 CB         34.0858  -48.9931  -51.5735 C.3       2 UNK        -0.1963 
     64 N          34.2554  -46.5679  -51.3111 N.am      2 UNK        -0.4790 
     65 C          34.1451  -45.3686  -50.7217 C.2       1 UNK         0.5024 
     66 O          33.2441  -45.0777  -49.9306 O.2       1 UNK        -0.4888 
     67 H67        35.4303  -41.4407  -48.3106 H         1 UNK         0.0892 
     68 H68        35.3592  -42.5875  -46.9714 H         1 UNK         0.0892 
     69 H69        36.9226  -42.0459  -47.5891 H         1 UNK         0.0892 
     70 H70        34.9334  -42.4263  -50.2640 H         1 UNK         0.3107 
     71 H71        36.1824  -44.8889  -51.1055 H         1 UNK         0.0773 
     72 H72        34.8529  -44.5124  -53.2181 H         1 UNK         0.0680 
     73 H73        35.9695  -43.2485  -52.8030 H         1 UNK         0.0680 
     74 H74        34.7767  -42.0345  -54.7348 H         1 UNK         0.0650 
     75 H75        33.3178  -41.0978  -54.5346 H         1 UNK         0.0650 
     76 H76        34.6472  -44.4110  -55.5137 H         1 UNK         0.1397 
     77 H77        30.9021  -45.8223  -57.0317 H         1 UNK         0.1363 
     78 H78        31.0988  -42.0482  -55.0154 H         1 UNK         0.1355 
     79 H79        29.2147  -42.7777  -56.8929 H         1 UNK         0.0707 
     80 H80        28.9481  -44.5077  -56.9219 H         1 UNK         0.0707 
     81 H81        26.7466  -43.3458  -56.5195 H         1 UNK         0.1034 
     82 H82        26.4630  -42.2671  -55.1892 H         1 UNK         0.1034 
     83 H83        25.5857  -44.0811  -53.7971 H         1 UNK         0.0482 
     84 H84        23.7325  -45.8259  -55.9446 H         1 UNK         0.3460 
     85 H85        22.5038  -44.6134  -56.1965 H         1 UNK         0.3460 
     86 H86        25.8878  -46.2235  -54.1071 H         1 UNK         0.2989 
     87 H87        27.4830  -48.1373  -55.9607 H         1 UNK         0.0559 
     88 H88        26.3796  -48.1373  -53.7642 H         1 UNK         0.0848 
     89 H89        25.9248  -49.5877  -54.6280 H         1 UNK         0.0848 
     90 H90        24.7839  -48.2542  -54.5113 H         1 UNK         0.0848 
     91 H91        26.5501  -49.1516  -57.6325 H         1 UNK         0.3144 
     92 H92        23.6322  -49.9398  -58.8352 H         1 UNK         0.0727 
     93 H93        23.5015  -48.5438  -60.9166 H         1 UNK         0.0790 
     94 H94        24.3616  -47.2402  -60.0951 H         1 UNK         0.0790 
     95 H95        22.7672  -47.7343  -59.5444 H         1 UNK         0.0790 
     96 H96        26.1790  -48.9794  -60.0552 H         1 UNK         0.3215 
     97 H97        27.7120  -52.1397  -59.7088 H         1 UNK         0.0863 
     98 H98        28.1195  -51.9383  -62.1416 H         1 UNK         0.0808 
     99 H99        26.8326  -50.7404  -62.2930 H         1 UNK         0.0808 
    100 H100       26.4510  -52.3998  -61.8569 H         1 UNK         0.0808 
    101 H101       28.7657  -49.8526  -60.9134 H         1 UNK         0.3118 
    102 H102       30.4385  -48.7741  -59.8835 H         1 UNK         0.0546 
    103 H103       28.8648  -47.0665  -57.8822 H         1 UNK         0.0828 
    104 H104       28.5332  -47.1164  -59.6064 H         1 UNK         0.0828 
    105 H105       30.0753  -46.5101  -59.0411 H         1 UNK         0.0828 
    106 H106       30.5243  -48.5292  -56.9184 H         1 UNK         0.3005 
    107 H107       32.8304  -51.1625  -56.6049 H         1 UNK         0.1257 
    108 H108       34.5381  -49.8865  -55.6869 H         1 UNK         0.0775 
    109 H109       34.3993  -49.1379  -57.2426 H         1 UNK         0.0775 
    110 H110       34.5160  -46.3101  -57.1993 H         1 UNK         0.0840 
    111 H111       32.9520  -46.9587  -57.6360 H         1 UNK         0.0840 
    112 H112       31.7728  -49.1713  -54.8154 H         1 UNK         0.2987 
    113 H113       28.6026  -50.0862  -54.6014 H         1 UNK         0.0785 
    114 H114       28.5967  -50.9454  -52.2672 H         1 UNK         0.0798 
    115 H115       30.2882  -51.4234  -52.4142 H         1 UNK         0.0798 
    116 H116       29.0537  -52.2237  -53.3787 H         1 UNK         0.0798 
    117 H117       30.1639  -48.9538  -52.4892 H         1 UNK         0.3079 
    118 H118       30.6269  -45.7213  -53.8968 H         1 UNK         0.0794 
    119 H119       28.3925  -45.8886  -52.8253 H         1 UNK         0.0786 
    120 H120       29.5773  -45.1873  -51.7362 H         1 UNK         0.0786 
    121 H121       29.0558  -46.8580  -51.5241 H         1 UNK         0.0786 
    122 H122       32.4855  -46.2355  -52.8492 H         1 UNK         0.3032 
    123 H123       33.3639  -47.8320  -49.9190 H         1 UNK         0.1094 
    124 H124       34.1851  -48.9467  -52.6585 H         1 UNK         0.0794 
    125 H125       35.0797  -49.1394  -51.1504 H         1 UNK         0.0794 
    126 H126       33.5037  -49.8858  -51.3393 H         1 UNK         0.0794 
    127 H127       35.0168  -46.7244  -51.9568 H         1 UNK         0.3016 
@<TRIPOS>BOND
     1    1    2 1    
     2    1   67 1    
     3    1   68 1    
     4    1   69 1    
     5    2    3 2    
     6    2    4 am   BACKBONE|DICT|INTERRES
     7    4    5 1    
     8    4   70 1    
     9    5    6 1    
    10    5   65 1    
    11    5   71 1    
    12    6    7 1    
    13    6   72 1    
    14    6   73 1    
    15    7    8 1    
    16    8    9 1    
    17    8   74 1    
    18    8   75 1    
    19    9   10 ar   
    20    9   14 ar   
    21   10   11 ar   
    22   10   76 1    
    23   11   12 ar   
    24   11   48 1    
    25   12   13 ar   
    26   12   77 1    
    27   13   14 ar   
    28   13   15 1    
    29   14   78 1    
    30   15   16 1    
    31   15   79 1    
    32   15   80 1    
    33   16   17 1    
    34   17   18 1    
    35   17   81 1    
    36   17   82 1    
    37   18   19 1    
    38   18   22 1    
    39   18   83 1    
    40   19   20 am   BACKBONE|DICT|INTERRES
    41   19   21 2    
    42   20   84 1    
    43   20   85 1    
    44   22   23 am   BACKBONE|DICT|INTERRES
    45   22   86 1    
    46   23   24 2    
    47   23   25 1    
    48   25   26 1    
    49   25   27 1    
    50   25   87 1    
    51   26   88 1    
    52   26   89 1    
    53   26   90 1    
    54   27   28 am   BACKBONE|DICT|INTERRES
    55   27   91 1    
    56   28   29 2    
    57   28   30 1    
    58   30   31 1    
    59   30   32 1    
    60   30   92 1    
    61   31   93 1    
    62   31   94 1    
    63   31   95 1    
    64   32   33 am   BACKBONE|DICT|INTERRES
    65   32   96 1    
    66   33   34 2    
    67   33   35 1    
    68   35   36 1    
    69   35   37 1    
    70   35   97 1    
    71   36   98 1    
    72   36   99 1    
    73   36  100 1    
    74   37   38 am   BACKBONE|DICT|INTERRES
    75   37  101 1    
    76   38   39 2    
    77   38   40 1    
    78   40   41 1    
    79   40   42 1    
    80   40  102 1    
    81   41  103 1    
    82   41  104 1    
    83   41  105 1    
    84   42   43 am   BACKBONE|DICT|INTERRES
    85   42  106 1    
    86   43   44 2    
    87   43   45 1    
    88   45   46 1    
    89   45   49 1    
    90   45  107 1    
    91   46   47 1    
    92   46  108 1    
    93   46  109 1    
    94   47   48 1    
    95   48  110 1    
    96   48  111 1    
    97   49   50 am   BACKBONE|DICT|INTERRES
    98   49  112 1    
    99   50   51 2    
   100   50   52 1    
   101   52   53 1    
   102   52   54 1    
   103   52  113 1    
   104   53  114 1    
   105   53  115 1    
   106   53  116 1    
   107   54   55 am   BACKBONE|DICT|INTERRES
   108   54  117 1    
   109   55   56 2    
   110   55   57 1    
   111   57   58 1    
   112   57   59 1    
   113   57  118 1    
   114   58  119 1    
   115   58  120 1    
   116   58  121 1    
   117   59   60 am   BACKBONE|DICT|INTERRES
   118   59  122 1    
   119   60   61 2    
   120   60   62 1    
   121   62   63 1    
   122   62   64 1    
   123   62  123 1    
   124   63  124 1    
   125   63  125 1    
   126   63  126 1    
   127   64   65 am   BACKBONE|DICT|INTERRES
   128   64  127 1    
   129   65   66 2    
@<TRIPOS>SUBSTRUCTURE
     1 UNK         1 GROUP             0       ****    0 ROOT    
