@<TRIPOS>MOLECULE
3R134
127   129    1
SMALL
USER_CHARGES


@<TRIPOS>ATOM
      1 CA         34.1409  -46.1479  -50.1601 C.3       0 UNK        -0.1968 
      2 C          34.0267  -46.6944  -51.5753 C.2       0 UNK         0.4852 
      3 O          33.4019  -47.7340  -51.7765 O.2       0 UNK        -0.5359 
      4 N          34.6185  -45.9978  -52.5544 N.am      1 UNK        -0.4300 
      5 CA         34.6223  -46.3491  -53.9792 C.3       1 UNK         0.0863 
      6 C6         33.1914  -46.3610  -54.5999 C.3       11 UNK        -0.0953 
      7 S7         33.1570  -45.6296  -56.2707 S.3       11 UNK        -0.2369 
      8 C8         33.0789  -43.8447  -55.9014 C.3       11 UNK         0.0226 
      9 C9         31.7436  -43.4308  -55.2986 C.ar      11 UNK        -0.0699 
     10 C10        31.5924  -43.3501  -53.9114 C.ar      11 UNK        -0.0804 
     11 C11        30.3634  -42.9992  -53.3485 C.ar      11 UNK        -0.0871 
     12 C12        29.2896  -42.6837  -54.1866 C.ar      11 UNK        -0.1008 
     13 C13        29.4328  -42.7373  -55.5774 C.ar      11 UNK        -0.0735 
     14 C14        30.6626  -43.1147  -56.1266 C.ar      11 UNK        -0.0945 
     15 C15        28.2702  -42.3587  -56.4853 C.3       11 UNK         0.0169 
     16 S16        26.8341  -43.4509  -56.2540 S.3       11 UNK        -0.2669 
     17 C17        25.6434  -42.6956  -57.4143 C.3       11 UNK        -0.0850 
     18 CA         24.8805  -43.7476  -58.2706 C.3       10 UNK         0.0855 
     19 C          23.7419  -43.1110  -59.1260 C.2       10 UNK         0.5543 
     20 N          23.4245  -43.6407  -60.3013 N.am      10 UNK        -0.7343 
     21 O          23.1126  -42.1416  -58.7084 O.2       10 UNK        -0.5027 
     22 N          25.7733  -44.6576  -59.0115 N.am      10 UNK        -0.4495 
     23 C          26.6395  -44.3301  -59.9768 C.2       10 UNK         0.4903 
     24 O          26.8233  -43.1792  -60.3764 O.2       10 UNK        -0.4860 
     25 CA         27.4358  -45.5002  -60.5919 C.3       9 UNK         0.0227 
     26 CB         28.2695  -45.0692  -61.8135 C.3       9 UNK        -0.1964 
     27 N          28.3214  -46.1437  -59.6169 N.am      9 UNK        -0.4231 
     28 C          27.9354  -46.9577  -58.6254 C.2       9 UNK         0.5014 
     29 O          26.7597  -47.2794  -58.4257 O.2       9 UNK        -0.5270 
     30 CA         29.0566  -47.4658  -57.7029 C.3       8 UNK         0.0284 
     31 CB         29.6535  -46.3143  -56.8793 C.3       8 UNK        -0.1977 
     32 N          28.5765  -48.4905  -56.7791 N.am      8 UNK        -0.4342 
     33 C          28.4054  -49.7841  -57.0801 C.2       8 UNK         0.5039 
     34 O          28.6618  -50.2654  -58.1855 O.2       8 UNK        -0.5547 
     35 CA         27.8840  -50.7119  -55.9662 C.3       7 UNK         0.0281 
     36 CB         28.9703  -51.7189  -55.5470 C.3       7 UNK        -0.1963 
     37 N          27.4471  -49.9707  -54.7802 N.am      7 UNK        -0.4444 
     38 C          26.1838  -49.5959  -54.5337 C.2       7 UNK         0.5104 
     39 O          25.2323  -49.8791  -55.2618 O.2       7 UNK        -0.5100 
     40 CA         25.9256  -48.7711  -53.2562 C.3       6 UNK         0.0396 
     41 CB         25.3708  -49.6741  -52.1429 C.3       6 UNK        -0.1801 
     42 N          27.1092  -48.0672  -52.7530 N.am      6 UNK        -0.4747 
     43 C          27.7130  -47.0395  -53.3699 C.2       6 UNK         0.5012 
     44 O          27.3043  -46.5495  -54.4195 O.2       6 UNK        -0.5003 
     45 CA         29.0276  -46.5253  -52.7428 C.3       5 UNK         0.0782 
     46 C46        28.7372  -45.3805  -51.7422 C.3       11 UNK        -0.0868 
     47 S47        30.2652  -44.6213  -51.0937 S.3       11 UNK        -0.2515 
     48 C48        30.2056  -42.9566  -51.8353 C.3       11 UNK         0.0199 
     49 N          29.7997  -47.6181  -52.1304 N.am      5 UNK        -0.4607 
     50 C          30.2897  -48.6658  -52.8035 C.2       4 UNK         0.5031 
     51 O          30.1810  -48.8067  -54.0239 O.2       4 UNK        -0.5119 
     52 CA         30.9214  -49.7888  -51.9791 C.3       4 UNK         0.0263 
     53 CB         29.8384  -50.7618  -51.4738 C.3       4 UNK        -0.1967 
     54 N          31.8637  -50.4896  -52.8433 N.am      4 UNK        -0.4237 
     55 C          32.8775  -51.2605  -52.4358 C.2       3 UNK         0.4908 
     56 O          33.1166  -51.5264  -51.2573 O.2       3 UNK        -0.5102 
     57 CA         33.7895  -51.8140  -53.5342 C.3       3 UNK         0.0241 
     58 CB         33.0594  -52.8564  -54.4047 C.3       3 UNK        -0.1971 
     59 N          34.3102  -50.7194  -54.3531 N.am      3 UNK        -0.4139 
     60 C          35.4330  -50.7690  -55.0803 C.2       2 UNK         0.5016 
     61 O          36.1515  -51.7666  -55.1605 O.2       2 UNK        -0.5319 
     62 CA         35.8279  -49.5030  -55.8656 C.3       2 UNK         0.0286 
     63 CB         35.5356  -49.6906  -57.3637 C.3       2 UNK        -0.1963 
     64 N          35.1610  -48.2801  -55.4059 N.am      2 UNK        -0.4790 
     65 C          35.4450  -47.6275  -54.2704 C.2       1 UNK         0.5024 
     66 O          36.3330  -47.9845  -53.4923 O.2       1 UNK        -0.4888 
     67 H67        34.6058  -46.8877  -49.5092 H         1 UNK         0.0892 
     68 H68        34.7374  -45.2368  -50.1203 H         1 UNK         0.0892 
     69 H69        33.1496  -45.9218  -49.7677 H         1 UNK         0.0892 
     70 H70        35.1556  -45.1765  -52.3144 H         1 UNK         0.3107 
     71 H71        35.1928  -45.5434  -54.4431 H         1 UNK         0.0773 
     72 H72        32.7705  -47.3674  -54.6402 H         1 UNK         0.0680 
     73 H73        32.4898  -45.8179  -53.9706 H         1 UNK         0.0680 
     74 H74        33.2481  -43.2913  -56.8262 H         1 UNK         0.0650 
     75 H75        33.8981  -43.5734  -55.2342 H         1 UNK         0.0650 
     76 H76        32.4263  -43.5843  -53.2637 H         1 UNK         0.1397 
     77 H77        28.3370  -42.3985  -53.7611 H         1 UNK         0.1363 
     78 H78        30.7820  -43.1628  -57.2002 H         1 UNK         0.1355 
     79 H79        27.9776  -41.3289  -56.2757 H         1 UNK         0.0707 
     80 H80        28.5716  -42.3918  -57.5338 H         1 UNK         0.0707 
     81 H81        24.9426  -42.1084  -56.8182 H         1 UNK         0.1034 
     82 H82        26.1529  -41.9814  -58.0630 H         1 UNK         0.1034 
     83 H83        24.3519  -44.3943  -57.5694 H         1 UNK         0.0482 
     84 H84        23.9227  -44.4444  -60.6483 H         1 UNK         0.3460 
     85 H85        22.6807  -43.2316  -60.8446 H         1 UNK         0.3460 
     86 H86        25.7533  -45.6316  -58.7226 H         1 UNK         0.2989 
     87 H87        26.7086  -46.2389  -60.9358 H         1 UNK         0.0559 
     88 H88        29.0341  -44.3388  -61.5459 H         1 UNK         0.0848 
     89 H89        27.6369  -44.6131  -62.5764 H         1 UNK         0.0848 
     90 H90        28.7663  -45.9217  -62.2771 H         1 UNK         0.0848 
     91 H91        29.3010  -45.9083  -59.6860 H         1 UNK         0.3144 
     92 H92        29.8461  -47.8977  -58.3216 H         1 UNK         0.0727 
     93 H93        30.2061  -45.6234  -57.5155 H         1 UNK         0.0790 
     94 H94        30.3483  -46.6817  -56.1238 H         1 UNK         0.0790 
     95 H95        28.8829  -45.7375  -56.3673 H         1 UNK         0.0790 
     96 H96        28.2898  -48.1655  -55.8663 H         1 UNK         0.3215 
     97 H97        27.0449  -51.2749  -56.3808 H         1 UNK         0.0863 
     98 H98        29.8597  -51.2193  -55.1633 H         1 UNK         0.0808 
     99 H99        29.2830  -52.3305  -56.3944 H         1 UNK         0.0808 
    100 H100       28.6070  -52.3981  -54.7757 H         1 UNK         0.0808 
    101 H101       28.1817  -49.6543  -54.1599 H         1 UNK         0.3118 
    102 H102       25.1675  -48.0233  -53.4985 H         1 UNK         0.0546 
    103 H103       26.0909  -50.4369  -51.8438 H         1 UNK         0.0828 
    104 H104       24.4685  -50.1909  -52.4730 H         1 UNK         0.0828 
    105 H105       25.1037  -49.0965  -51.2578 H         1 UNK         0.0828 
    106 H106       27.5097  -48.4085  -51.8912 H         1 UNK         0.3005 
    107 H107       29.6273  -46.1173  -53.5611 H         1 UNK         0.1257 
    108 H108       28.1561  -45.7491  -50.8948 H         1 UNK         0.0775 
    109 H109       28.1251  -44.6079  -52.2117 H         1 UNK         0.0775 
    110 H110       29.2731  -42.4662  -51.5512 H         1 UNK         0.0840 
    111 H111       31.0080  -42.3526  -51.4091 H         1 UNK         0.0840 
    112 H112       29.9499  -47.5545  -51.1338 H         1 UNK         0.2987 
    113 H113       31.4552  -49.3556  -51.1312 H         1 UNK         0.0785 
    114 H114       29.1156  -50.2509  -50.8369 H         1 UNK         0.0798 
    115 H115       30.2732  -51.5670  -50.8815 H         1 UNK         0.0798 
    116 H116       29.2874  -51.2163  -52.2983 H         1 UNK         0.0798 
    117 H117       31.7208  -50.3019  -53.8276 H         1 UNK         0.3079 
    118 H118       34.6288  -52.3062  -53.0373 H         1 UNK         0.0794 
    119 H119       32.6194  -53.6411  -53.7878 H         1 UNK         0.0786 
    120 H120       33.7446  -53.3409  -55.1004 H         1 UNK         0.0786 
    121 H121       32.2550  -52.4087  -54.9891 H         1 UNK         0.0786 
    122 H122       33.8275  -49.8346  -54.2858 H         1 UNK         0.3032 
    123 H123       36.9055  -49.3732  -55.7407 H         1 UNK         0.1094 
    124 H124       36.0434  -50.5741  -57.7536 H         1 UNK         0.0794 
    125 H125       34.4692  -49.8174  -57.5547 H         1 UNK         0.0794 
    126 H126       35.8832  -48.8373  -57.9465 H         1 UNK         0.0794 
    127 H127       34.4432  -47.8974  -56.0076 H         1 UNK         0.3016 
@<TRIPOS>BOND
     1    1    2 1    
     2    1   67 1    
     3    1   68 1    
     4    1   69 1    
     5    2    3 2    
     6    2    4 am   BACKBONE|DICT|INTERRES
     7    4    5 1    
     8    4   70 1    
     9    5    6 1    
    10    5   65 1    
    11    5   71 1    
    12    6    7 1    
    13    6   72 1    
    14    6   73 1    
    15    7    8 1    
    16    8    9 1    
    17    8   74 1    
    18    8   75 1    
    19    9   10 ar   
    20    9   14 ar   
    21   10   11 ar   
    22   10   76 1    
    23   11   12 ar   
    24   11   48 1    
    25   12   13 ar   
    26   12   77 1    
    27   13   14 ar   
    28   13   15 1    
    29   14   78 1    
    30   15   16 1    
    31   15   79 1    
    32   15   80 1    
    33   16   17 1    
    34   17   18 1    
    35   17   81 1    
    36   17   82 1    
    37   18   19 1    
    38   18   22 1    
    39   18   83 1    
    40   19   20 am   BACKBONE|DICT|INTERRES
    41   19   21 2    
    42   20   84 1    
    43   20   85 1    
    44   22   23 am   BACKBONE|DICT|INTERRES
    45   22   86 1    
    46   23   24 2    
    47   23   25 1    
    48   25   26 1    
    49   25   27 1    
    50   25   87 1    
    51   26   88 1    
    52   26   89 1    
    53   26   90 1    
    54   27   28 am   BACKBONE|DICT|INTERRES
    55   27   91 1    
    56   28   29 2    
    57   28   30 1    
    58   30   31 1    
    59   30   32 1    
    60   30   92 1    
    61   31   93 1    
    62   31   94 1    
    63   31   95 1    
    64   32   33 am   BACKBONE|DICT|INTERRES
    65   32   96 1    
    66   33   34 2    
    67   33   35 1    
    68   35   36 1    
    69   35   37 1    
    70   35   97 1    
    71   36   98 1    
    72   36   99 1    
    73   36  100 1    
    74   37   38 am   BACKBONE|DICT|INTERRES
    75   37  101 1    
    76   38   39 2    
    77   38   40 1    
    78   40   41 1    
    79   40   42 1    
    80   40  102 1    
    81   41  103 1    
    82   41  104 1    
    83   41  105 1    
    84   42   43 am   BACKBONE|DICT|INTERRES
    85   42  106 1    
    86   43   44 2    
    87   43   45 1    
    88   45   46 1    
    89   45   49 1    
    90   45  107 1    
    91   46   47 1    
    92   46  108 1    
    93   46  109 1    
    94   47   48 1    
    95   48  110 1    
    96   48  111 1    
    97   49   50 am   BACKBONE|DICT|INTERRES
    98   49  112 1    
    99   50   51 2    
   100   50   52 1    
   101   52   53 1    
   102   52   54 1    
   103   52  113 1    
   104   53  114 1    
   105   53  115 1    
   106   53  116 1    
   107   54   55 am   BACKBONE|DICT|INTERRES
   108   54  117 1    
   109   55   56 2    
   110   55   57 1    
   111   57   58 1    
   112   57   59 1    
   113   57  118 1    
   114   58  119 1    
   115   58  120 1    
   116   58  121 1    
   117   59   60 am   BACKBONE|DICT|INTERRES
   118   59  122 1    
   119   60   61 2    
   120   60   62 1    
   121   62   63 1    
   122   62   64 1    
   123   62  123 1    
   124   63  124 1    
   125   63  125 1    
   126   63  126 1    
   127   64   65 am   BACKBONE|DICT|INTERRES
   128   64  127 1    
   129   65   66 2    
@<TRIPOS>SUBSTRUCTURE
     1 UNK         1 GROUP             0       ****    0 ROOT    
