@<TRIPOS>MOLECULE
3R134
127   129    1
SMALL
USER_CHARGES


@<TRIPOS>ATOM
      1 CA         32.9112  -46.2183  -50.6114 C.3       0 UNK        -0.1968 
      2 C          34.2593  -45.9077  -51.2461 C.2       0 UNK         0.4852 
      3 O          35.0225  -45.1086  -50.7011 O.2       0 UNK        -0.5359 
      4 N          34.5430  -46.5328  -52.3929 N.am      1 UNK        -0.4300 
      5 CA         35.7878  -46.4138  -53.1560 C.3       1 UNK         0.0863 
      6 C6         35.5359  -45.9433  -54.6208 C.3       11 UNK        -0.0953 
      7 S7         34.5112  -44.4388  -54.7373 S.3       11 UNK        -0.2369 
      8 C8         32.9143  -45.2012  -55.1645 C.3       11 UNK         0.0226 
      9 C9         31.7452  -44.2786  -54.8712 C.ar      11 UNK        -0.0699 
     10 C10        31.3519  -44.0553  -53.5497 C.ar      11 UNK        -0.0804 
     11 C11        30.2279  -43.2758  -53.2635 C.ar      11 UNK        -0.0871 
     12 C12        29.5085  -42.6978  -54.3134 C.ar      11 UNK        -0.1008 
     13 C13        29.8983  -42.9087  -55.6396 C.ar      11 UNK        -0.0735 
     14 C14        31.0213  -43.6947  -55.9133 C.ar      11 UNK        -0.0945 
     15 C15        29.0804  -42.3235  -56.7780 C.3       11 UNK         0.0169 
     16 S16        27.5834  -43.3155  -57.0403 S.3       11 UNK        -0.2669 
     17 C17        27.0193  -42.6891  -58.6571 C.3       11 UNK        -0.0850 
     18 CA         25.7002  -43.3670  -59.1119 C.3       10 UNK         0.0855 
     19 C          25.1812  -42.7602  -60.4473 C.2       10 UNK         0.5543 
     20 N          24.9986  -43.5388  -61.5070 N.am      10 UNK        -0.7343 
     21 O          24.9309  -41.5596  -60.5196 O.2       10 UNK        -0.5027 
     22 N          25.8279  -44.8329  -59.1177 N.am      10 UNK        -0.4495 
     23 C          24.8379  -45.7033  -58.9082 C.2       10 UNK         0.4903 
     24 O          23.6645  -45.3726  -58.7345 O.2       10 UNK        -0.4860 
     25 CA         25.2032  -47.1990  -58.8658 C.3       9 UNK         0.0227 
     26 CB         25.0517  -47.8428  -60.2575 C.3       9 UNK        -0.1964 
     27 N          26.5097  -47.5195  -58.2670 N.am      9 UNK        -0.4231 
     28 C          27.7468  -47.2529  -58.7178 C.2       9 UNK         0.5014 
     29 O          27.9742  -46.5863  -59.7287 O.2       9 UNK        -0.5270 
     30 CA         28.9425  -47.8084  -57.9149 C.3       8 UNK         0.0284 
     31 CB         29.6809  -46.6734  -57.1866 C.3       8 UNK        -0.1977 
     32 N          28.5823  -48.8437  -56.9426 N.am      8 UNK        -0.4342 
     33 C          28.1302  -50.0693  -57.2425 C.2       8 UNK         0.5039 
     34 O          28.0485  -50.5100  -58.3893 O.2       8 UNK        -0.5547 
     35 CA         27.6399  -50.9303  -56.0662 C.3       7 UNK         0.0281 
     36 CB         28.7847  -51.7798  -55.4917 C.3       7 UNK        -0.1963 
     37 N          27.0335  -50.1288  -54.9976 N.am      7 UNK        -0.4444 
     38 C          25.8579  -49.4909  -55.0950 C.2       7 UNK         0.5104 
     39 O          25.1431  -49.5224  -56.0962 O.2       7 UNK        -0.5100 
     40 CA         25.4201  -48.6525  -53.8813 C.3       6 UNK         0.0396 
     41 CB         24.7222  -49.5378  -52.8369 C.3       6 UNK        -0.1801 
     42 N          26.5375  -47.9421  -53.2545 N.am      6 UNK        -0.4747 
     43 C          27.1789  -46.8995  -53.8056 C.2       6 UNK         0.5012 
     44 O          26.8539  -46.3915  -54.8777 O.2       6 UNK        -0.5003 
     45 CA         28.4132  -46.3668  -53.0452 C.3       5 UNK         0.0782 
     46 C46        27.9871  -45.2773  -52.0258 C.3       11 UNK        -0.0868 
     47 S47        29.3717  -44.6572  -51.0072 S.3       11 UNK        -0.2515 
     48 C48        29.7793  -43.0785  -51.8225 C.3       11 UNK         0.0199 
     49 N          29.1965  -47.4431  -52.4188 N.am      5 UNK        -0.4607 
     50 C          29.7725  -48.4589  -53.0733 C.2       4 UNK         0.5031 
     51 O          29.6666  -48.6350  -54.2882 O.2       4 UNK        -0.5119 
     52 CA         30.5215  -49.4872  -52.2077 C.3       4 UNK         0.0263 
     53 CB         29.5209  -50.4584  -51.5581 C.3       4 UNK        -0.1967 
     54 N          31.5034  -50.2655  -52.9684 N.am      4 UNK        -0.4237 
     55 C          32.6139  -49.7645  -53.5217 C.2       3 UNK         0.4908 
     56 O          32.9584  -48.5819  -53.4259 O.2       3 UNK        -0.5102 
     57 CA         33.4848  -50.7514  -54.3137 C.3       3 UNK         0.0241 
     58 CB         32.8698  -51.0385  -55.6946 C.3       3 UNK        -0.1971 
     59 N          34.8008  -50.1494  -54.4954 N.am      3 UNK        -0.4139 
     60 C          35.9884  -50.7157  -54.2484 C.2       2 UNK         0.5016 
     61 O          36.1379  -51.9019  -53.9529 O.2       2 UNK        -0.5319 
     62 CA         37.2235  -49.7922  -54.3332 C.3       2 UNK         0.0286 
     63 CB         37.9709  -50.0114  -55.6587 C.3       2 UNK        -0.1963 
     64 N          36.8699  -48.3716  -54.2093 N.am      2 UNK        -0.4790 
     65 C          36.4845  -47.7890  -53.0632 C.2       1 UNK         0.5024 
     66 O          36.6110  -48.3330  -51.9636 O.2       1 UNK        -0.4888 
     67 H67        33.0435  -46.8654  -49.7449 H         1 UNK         0.0892 
     68 H68        32.4283  -45.2989  -50.2809 H         1 UNK         0.0892 
     69 H69        32.2408  -46.7152  -51.3125 H         1 UNK         0.0892 
     70 H70        33.8924  -47.2332  -52.7500 H         1 UNK         0.3107 
     71 H71        36.4558  -45.6931  -52.6805 H         1 UNK         0.0773 
     72 H72        35.0540  -46.7243  -55.2121 H         1 UNK         0.0680 
     73 H73        36.4860  -45.7278  -55.1129 H         1 UNK         0.0680 
     74 H74        32.7756  -46.1207  -54.5947 H         1 UNK         0.0650 
     75 H75        32.9276  -45.4927  -56.2158 H         1 UNK         0.0650 
     76 H76        31.9069  -44.5123  -52.7431 H         1 UNK         0.1397 
     77 H77        28.6296  -42.1028  -54.1055 H         1 UNK         0.1363 
     78 H78        31.3144  -43.8748  -56.9384 H         1 UNK         0.1355 
     79 H79        28.8030  -41.2928  -56.5519 H         1 UNK         0.0707 
     80 H80        29.6693  -42.2968  -57.6962 H         1 UNK         0.0707 
     81 H81        26.8893  -41.6078  -58.5803 H         1 UNK         0.1034 
     82 H82        27.8072  -42.8560  -59.3940 H         1 UNK         0.1034 
     83 H83        24.9427  -43.1111  -58.3684 H         1 UNK         0.0482 
     84 H84        24.6577  -43.1370  -62.3661 H         1 UNK         0.3460 
     85 H85        25.2005  -44.5241  -61.4518 H         1 UNK         0.3460 
     86 H86        26.7542  -45.2103  -59.2954 H         1 UNK         0.2989 
     87 H87        24.4703  -47.6719  -58.2102 H         1 UNK         0.0559 
     88 H88        25.7472  -47.4193  -60.9826 H         1 UNK         0.0848 
     89 H89        24.0448  -47.6914  -60.6487 H         1 UNK         0.0848 
     90 H90        25.2247  -48.9183  -60.2162 H         1 UNK         0.0848 
     91 H91        26.4496  -48.0378  -57.4000 H         1 UNK         0.3144 
     92 H92        29.6316  -48.2557  -58.6339 H         1 UNK         0.0727 
     93 H93        30.5578  -47.0429  -56.6541 H         1 UNK         0.0790 
     94 H94        29.0378  -46.1717  -56.4630 H         1 UNK         0.0790 
     95 H95        30.0237  -45.9157  -57.8922 H         1 UNK         0.0790 
     96 H96        28.7209  -48.6156  -55.9607 H         1 UNK         0.3215 
     97 H97        26.8756  -51.6083  -56.4529 H         1 UNK         0.0863 
     98 H98        28.4298  -52.4458  -54.7051 H         1 UNK         0.0808 
     99 H99        29.5779  -51.1597  -55.0762 H         1 UNK         0.0808 
    100 H100       29.2321  -52.4038  -56.2666 H         1 UNK         0.0808 
    101 H101       27.5827  -49.9960  -54.1619 H         1 UNK         0.3118 
    102 H102       24.6988  -47.9110  -54.2319 H         1 UNK         0.0546 
    103 H103       25.3945  -50.2927  -52.4273 H         1 UNK         0.0828 
    104 H104       23.8733  -50.0630  -53.2772 H         1 UNK         0.0828 
    105 H105       24.3375  -48.9445  -52.0073 H         1 UNK         0.0828 
    106 H106       26.8635  -48.2889  -52.3639 H         1 UNK         0.3005 
    107 H107       29.0585  -45.8993  -53.7928 H         1 UNK         0.1257 
    108 H108       27.2332  -45.6701  -51.3408 H         1 UNK         0.0775 
    109 H109       27.5162  -44.4376  -52.5410 H         1 UNK         0.0775 
    110 H110       28.9155  -42.4142  -51.7664 H         1 UNK         0.0840 
    111 H111       30.5796  -42.5893  -51.2655 H         1 UNK         0.0840 
    112 H112       29.3227  -47.3634  -51.4200 H         1 UNK         0.2987 
    113 H113       31.0549  -48.9507  -51.4204 H         1 UNK         0.0785 
    114 H114       30.0269  -51.1662  -50.9010 H         1 UNK         0.0798 
    115 H115       28.9690  -51.0318  -52.3041 H         1 UNK         0.0798 
    116 H116       28.7895  -49.9263  -50.9484 H         1 UNK         0.0798 
    117 H117       31.2884  -51.2407  -53.1133 H         1 UNK         0.3079 
    118 H118       33.5680  -51.6794  -53.7438 H         1 UNK         0.0794 
    119 H119       31.9132  -51.5523  -55.6012 H         1 UNK         0.0786 
    120 H120       33.5203  -51.6781  -56.2915 H         1 UNK         0.0786 
    121 H121       32.6947  -50.1206  -56.2580 H         1 UNK         0.0786 
    122 H122       34.7763  -49.1533  -54.6591 H         1 UNK         0.3032 
    123 H123       37.8912  -50.0622  -53.5115 H         1 UNK         0.1094 
    124 H124       38.8770  -49.4071  -55.7082 H         1 UNK         0.0794 
    125 H125       38.2730  -51.0541  -55.7674 H         1 UNK         0.0794 
    126 H126       37.3508  -49.7609  -56.5204 H         1 UNK         0.0794 
    127 H127       36.7827  -47.8526  -55.0717 H         1 UNK         0.3016 
@<TRIPOS>BOND
     1    1    2 1    
     2    1   67 1    
     3    1   68 1    
     4    1   69 1    
     5    2    3 2    
     6    2    4 am   BACKBONE|DICT|INTERRES
     7    4    5 1    
     8    4   70 1    
     9    5    6 1    
    10    5   65 1    
    11    5   71 1    
    12    6    7 1    
    13    6   72 1    
    14    6   73 1    
    15    7    8 1    
    16    8    9 1    
    17    8   74 1    
    18    8   75 1    
    19    9   10 ar   
    20    9   14 ar   
    21   10   11 ar   
    22   10   76 1    
    23   11   12 ar   
    24   11   48 1    
    25   12   13 ar   
    26   12   77 1    
    27   13   14 ar   
    28   13   15 1    
    29   14   78 1    
    30   15   16 1    
    31   15   79 1    
    32   15   80 1    
    33   16   17 1    
    34   17   18 1    
    35   17   81 1    
    36   17   82 1    
    37   18   19 1    
    38   18   22 1    
    39   18   83 1    
    40   19   20 am   BACKBONE|DICT|INTERRES
    41   19   21 2    
    42   20   84 1    
    43   20   85 1    
    44   22   23 am   BACKBONE|DICT|INTERRES
    45   22   86 1    
    46   23   24 2    
    47   23   25 1    
    48   25   26 1    
    49   25   27 1    
    50   25   87 1    
    51   26   88 1    
    52   26   89 1    
    53   26   90 1    
    54   27   28 am   BACKBONE|DICT|INTERRES
    55   27   91 1    
    56   28   29 2    
    57   28   30 1    
    58   30   31 1    
    59   30   32 1    
    60   30   92 1    
    61   31   93 1    
    62   31   94 1    
    63   31   95 1    
    64   32   33 am   BACKBONE|DICT|INTERRES
    65   32   96 1    
    66   33   34 2    
    67   33   35 1    
    68   35   36 1    
    69   35   37 1    
    70   35   97 1    
    71   36   98 1    
    72   36   99 1    
    73   36  100 1    
    74   37   38 am   BACKBONE|DICT|INTERRES
    75   37  101 1    
    76   38   39 2    
    77   38   40 1    
    78   40   41 1    
    79   40   42 1    
    80   40  102 1    
    81   41  103 1    
    82   41  104 1    
    83   41  105 1    
    84   42   43 am   BACKBONE|DICT|INTERRES
    85   42  106 1    
    86   43   44 2    
    87   43   45 1    
    88   45   46 1    
    89   45   49 1    
    90   45  107 1    
    91   46   47 1    
    92   46  108 1    
    93   46  109 1    
    94   47   48 1    
    95   48  110 1    
    96   48  111 1    
    97   49   50 am   BACKBONE|DICT|INTERRES
    98   49  112 1    
    99   50   51 2    
   100   50   52 1    
   101   52   53 1    
   102   52   54 1    
   103   52  113 1    
   104   53  114 1    
   105   53  115 1    
   106   53  116 1    
   107   54   55 am   BACKBONE|DICT|INTERRES
   108   54  117 1    
   109   55   56 2    
   110   55   57 1    
   111   57   58 1    
   112   57   59 1    
   113   57  118 1    
   114   58  119 1    
   115   58  120 1    
   116   58  121 1    
   117   59   60 am   BACKBONE|DICT|INTERRES
   118   59  122 1    
   119   60   61 2    
   120   60   62 1    
   121   62   63 1    
   122   62   64 1    
   123   62  123 1    
   124   63  124 1    
   125   63  125 1    
   126   63  126 1    
   127   64   65 am   BACKBONE|DICT|INTERRES
   128   64  127 1    
   129   65   66 2    
@<TRIPOS>SUBSTRUCTURE
     1 UNK         1 GROUP             0       ****    0 ROOT    
