@<TRIPOS>MOLECULE
3R134
127   129    1
SMALL
USER_CHARGES


@<TRIPOS>ATOM
      1 CA         37.9105  -46.5930  -54.5443 C.3       0 UNK        -0.1968 
      2 C          36.3982  -46.4252  -54.5596 C.2       0 UNK         0.4852 
      3 O          35.7235  -47.0709  -55.3628 O.2       0 UNK        -0.5359 
      4 N          35.8692  -45.5631  -53.6791 N.am      1 UNK        -0.4300 
      5 CA         34.4410  -45.2608  -53.5255 C.3       1 UNK         0.0863 
      6 C6         34.1952  -44.1691  -52.4525 C.3       11 UNK        -0.0953 
      7 S7         34.7117  -42.5172  -53.0154 S.3       11 UNK        -0.2369 
      8 C8         33.2003  -41.5426  -52.7025 C.3       11 UNK         0.0226 
      9 C9         32.0108  -42.0076  -53.5354 C.ar      11 UNK        -0.0699 
     10 C10        30.8436  -42.4724  -52.9151 C.ar      11 UNK        -0.0804 
     11 C11        29.7460  -42.8832  -53.6812 C.ar      11 UNK        -0.0871 
     12 C12        29.8217  -42.8072  -55.0748 C.ar      11 UNK        -0.1008 
     13 C13        30.9817  -42.3516  -55.7065 C.ar      11 UNK        -0.0735 
     14 C14        32.0721  -41.9516  -54.9309 C.ar      11 UNK        -0.0945 
     15 C15        31.0517  -42.2792  -57.2242 C.3       11 UNK         0.0169 
     16 S16        31.3052  -43.9304  -57.9477 S.3       11 UNK        -0.2669 
     17 C17        29.8331  -44.1066  -59.0125 C.3       11 UNK        -0.0850 
     18 CA         28.5920  -44.6613  -58.2413 C.3       10 UNK         0.0855 
     19 C          27.3887  -43.6666  -58.2008 C.2       10 UNK         0.5543 
     20 N          26.1422  -44.1094  -58.3201 N.am      10 UNK        -0.7343 
     21 O          27.5830  -42.4684  -58.0178 O.2       10 UNK        -0.5027 
     22 N          28.2376  -46.0360  -58.6191 N.am      10 UNK        -0.4495 
     23 C          27.8134  -46.4587  -59.8175 C.2       10 UNK         0.4903 
     24 O          27.7959  -45.7657  -60.8344 O.2       10 UNK        -0.4860 
     25 CA         27.2704  -47.8969  -59.8697 C.3       9 UNK         0.0227 
     26 CB         28.3994  -48.8888  -60.1923 C.3       9 UNK        -0.1964 
     27 N          26.6256  -48.2888  -58.6130 N.am      9 UNK        -0.4231 
     28 C          25.5053  -47.7516  -58.1082 C.2       9 UNK         0.5014 
     29 O          24.8363  -46.9044  -58.7020 O.2       9 UNK        -0.5270 
     30 CA         25.0998  -48.1645  -56.6785 C.3       8 UNK         0.0284 
     31 CB         23.5835  -48.4178  -56.5447 C.3       8 UNK        -0.1977 
     32 N          25.8890  -49.2753  -56.1299 N.am      8 UNK        -0.4342 
     33 C          25.8890  -50.5624  -56.5084 C.2       8 UNK         0.5039 
     34 O          25.1473  -51.0248  -57.3754 O.2       8 UNK        -0.5547 
     35 CA         26.9270  -51.4899  -55.8485 C.3       7 UNK         0.0281 
     36 CB         28.0170  -51.8667  -56.8662 C.3       7 UNK        -0.1963 
     37 N          27.5617  -50.9180  -54.6552 N.am      7 UNK        -0.4444 
     38 C          26.9513  -50.7713  -53.4703 C.2       7 UNK         0.5104 
     39 O          25.7982  -51.1400  -53.2453 O.2       7 UNK        -0.5100 
     40 CA         27.7481  -50.0752  -52.3544 C.3       6 UNK         0.0396 
     41 CB         28.6495  -51.0889  -51.6334 C.3       6 UNK        -0.1801 
     42 N          28.5473  -48.9400  -52.8311 N.am      6 UNK        -0.4747 
     43 C          28.0304  -47.7976  -53.3153 C.2       6 UNK         0.5012 
     44 O          26.8209  -47.5887  -53.4139 O.2       6 UNK        -0.5003 
     45 CA         29.0196  -46.7387  -53.8455 C.3       5 UNK         0.0782 
     46 C46        29.7255  -45.9408  -52.7216 C.3       11 UNK        -0.0868 
     47 S47        28.6742  -44.7456  -51.8326 S.3       11 UNK        -0.2515 
     48 C48        28.4572  -43.3772  -53.0265 C.3       11 UNK         0.0199 
     49 N          30.0062  -47.3423  -54.7379 N.am      5 UNK        -0.4607 
     50 C          29.7465  -47.8966  -55.9262 C.2       4 UNK         0.5031 
     51 O          28.6322  -47.9120  -56.4490 O.2       4 UNK        -0.5119 
     52 CA         30.9262  -48.5620  -56.6491 C.3       4 UNK         0.0263 
     53 CB         31.6880  -47.5364  -57.4997 C.3       4 UNK        -0.1967 
     54 N          31.8547  -49.2250  -55.7303 N.am      4 UNK        -0.4237 
     55 C          31.5587  -50.3267  -55.0271 C.2       3 UNK         0.4908 
     56 O          30.4632  -50.8872  -55.0581 O.2       3 UNK        -0.5102 
     57 CA         32.6642  -50.8793  -54.1141 C.3       3 UNK         0.0241 
     58 CB         33.7991  -51.5103  -54.9377 C.3       3 UNK        -0.1971 
     59 N          33.2113  -49.8686  -53.2070 N.am      3 UNK        -0.4139 
     60 C          32.5052  -49.2580  -52.2463 C.2       2 UNK         0.5016 
     61 O          31.3085  -49.4512  -52.0384 O.2       2 UNK        -0.5319 
     62 CA         33.2502  -48.2265  -51.3870 C.3       2 UNK         0.0286 
     63 CB         34.1565  -48.9271  -50.3614 C.3       2 UNK        -0.1963 
     64 N          34.0284  -47.2235  -52.1242 N.am      2 UNK        -0.4790 
     65 C          33.6072  -46.5050  -53.1772 C.2       1 UNK         0.5024 
     66 O          32.6032  -46.7580  -53.8399 O.2       1 UNK        -0.4888 
     67 H67        38.3843  -45.9642  -53.7906 H         1 UNK         0.0892 
     68 H68        38.1704  -47.6298  -54.3329 H         1 UNK         0.0892 
     69 H69        38.3264  -46.3286  -55.5161 H         1 UNK         0.0892 
     70 H70        36.4861  -45.0485  -53.0667 H         1 UNK         0.3107 
     71 H71        34.0750  -44.8940  -54.4875 H         1 UNK         0.0773 
     72 H72        34.7295  -44.4012  -51.5294 H         1 UNK         0.0680 
     73 H73        33.1398  -44.1274  -52.1764 H         1 UNK         0.0680 
     74 H74        32.9691  -41.5820  -51.6369 H         1 UNK         0.0650 
     75 H75        33.4046  -40.4962  -52.9331 H         1 UNK         0.0650 
     76 H76        30.7855  -42.5160  -51.8360 H         1 UNK         0.1397 
     77 H77        28.9714  -43.0961  -55.6737 H         1 UNK         0.1363 
     78 H78        32.9727  -41.5940  -55.4113 H         1 UNK         0.1355 
     79 H79        30.1405  -41.8194  -57.6070 H         1 UNK         0.0707 
     80 H80        31.8703  -41.6306  -57.5398 H         1 UNK         0.0707 
     81 H81        30.1155  -44.7730  -59.8281 H         1 UNK         0.1034 
     82 H82        29.6299  -43.1528  -59.5031 H         1 UNK         0.1034 
     83 H83        28.8634  -44.7683  -57.1917 H         1 UNK         0.0482 
     84 H84        25.3854  -43.4458  -58.2768 H         1 UNK         0.3460 
     85 H85        25.9397  -45.0866  -58.4862 H         1 UNK         0.3460 
     86 H86        28.2242  -46.7027  -57.8518 H         1 UNK         0.2989 
     87 H87        26.5234  -47.9481  -60.6643 H         1 UNK         0.0559 
     88 H88        29.1746  -48.8840  -59.4252 H         1 UNK         0.0848 
     89 H89        28.8781  -48.6383  -61.1400 H         1 UNK         0.0848 
     90 H90        28.0206  -49.9072  -60.2811 H         1 UNK         0.0848 
     91 H91        27.1427  -48.9150  -58.0123 H         1 UNK         0.3144 
     92 H92        25.3407  -47.3062  -56.0494 H         1 UNK         0.0727 
     93 H93        23.2420  -49.2099  -57.2113 H         1 UNK         0.0790 
     94 H94        23.0150  -47.5209  -56.7936 H         1 UNK         0.0790 
     95 H95        23.3167  -48.6966  -55.5253 H         1 UNK         0.0790 
     96 H96        26.5658  -49.0045  -55.4270 H         1 UNK         0.3215 
     97 H97        26.4041  -52.4024  -55.5542 H         1 UNK         0.0863 
     98 H98        28.5852  -50.9940  -57.1899 H         1 UNK         0.0808 
     99 H99        27.5838  -52.3238  -57.7569 H         1 UNK         0.0808 
    100 H100       28.7199  -52.5860  -56.4454 H         1 UNK         0.0808 
    101 H101       28.5424  -50.6601  -54.7382 H         1 UNK         0.3118 
    102 H102       27.0296  -49.6904  -51.6276 H         1 UNK         0.0546 
    103 H103       29.1470  -50.6364  -50.7756 H         1 UNK         0.0828 
    104 H104       29.4200  -51.4856  -52.2961 H         1 UNK         0.0828 
    105 H105       28.0698  -51.9349  -51.2618 H         1 UNK         0.0828 
    106 H106       29.5578  -49.0436  -52.7648 H         1 UNK         0.3005 
    107 H107       28.4434  -46.0355  -54.4503 H         1 UNK         0.1257 
    108 H108       30.5615  -45.3791  -53.1372 H         1 UNK         0.0775 
    109 H109       30.1719  -46.6190  -51.9919 H         1 UNK         0.0775 
    110 H110       27.7409  -43.6991  -53.7839 H         1 UNK         0.0840 
    111 H111       27.9878  -42.5393  -52.5095 H         1 UNK         0.0840 
    112 H112       30.9707  -47.3228  -54.4121 H         1 UNK         0.2987 
    113 H113       30.5162  -49.3217  -57.3174 H         1 UNK         0.0785 
    114 H114       32.4821  -48.0095  -58.0772 H         1 UNK         0.0798 
    115 H115       31.0214  -47.0453  -58.2099 H         1 UNK         0.0798 
    116 H116       32.1397  -46.7579  -56.8826 H         1 UNK         0.0798 
    117 H117       32.7565  -48.7893  -55.5955 H         1 UNK         0.3079 
    118 H118       32.2165  -51.6646  -53.5010 H         1 UNK         0.0794 
    119 H119       34.5270  -52.0045  -54.2939 H         1 UNK         0.0786 
    120 H120       34.3305  -50.7693  -55.5363 H         1 UNK         0.0786 
    121 H121       33.4104  -52.2655  -55.6226 H         1 UNK         0.0786 
    122 H122       34.1816  -49.6143  -53.3235 H         1 UNK         0.3032 
    123 H123       32.4854  -47.6775  -50.8333 H         1 UNK         0.1094 
    124 H124       34.9941  -49.4353  -50.8405 H         1 UNK         0.0794 
    125 H125       34.5627  -48.2179  -49.6400 H         1 UNK         0.0794 
    126 H126       33.6008  -49.6764  -49.7953 H         1 UNK         0.0794 
    127 H127       34.8950  -46.9381  -51.6914 H         1 UNK         0.3016 
@<TRIPOS>BOND
     1    1    2 1    
     2    1   67 1    
     3    1   68 1    
     4    1   69 1    
     5    2    3 2    
     6    2    4 am   BACKBONE|DICT|INTERRES
     7    4    5 1    
     8    4   70 1    
     9    5    6 1    
    10    5   65 1    
    11    5   71 1    
    12    6    7 1    
    13    6   72 1    
    14    6   73 1    
    15    7    8 1    
    16    8    9 1    
    17    8   74 1    
    18    8   75 1    
    19    9   10 ar   
    20    9   14 ar   
    21   10   11 ar   
    22   10   76 1    
    23   11   12 ar   
    24   11   48 1    
    25   12   13 ar   
    26   12   77 1    
    27   13   14 ar   
    28   13   15 1    
    29   14   78 1    
    30   15   16 1    
    31   15   79 1    
    32   15   80 1    
    33   16   17 1    
    34   17   18 1    
    35   17   81 1    
    36   17   82 1    
    37   18   19 1    
    38   18   22 1    
    39   18   83 1    
    40   19   20 am   BACKBONE|DICT|INTERRES
    41   19   21 2    
    42   20   84 1    
    43   20   85 1    
    44   22   23 am   BACKBONE|DICT|INTERRES
    45   22   86 1    
    46   23   24 2    
    47   23   25 1    
    48   25   26 1    
    49   25   27 1    
    50   25   87 1    
    51   26   88 1    
    52   26   89 1    
    53   26   90 1    
    54   27   28 am   BACKBONE|DICT|INTERRES
    55   27   91 1    
    56   28   29 2    
    57   28   30 1    
    58   30   31 1    
    59   30   32 1    
    60   30   92 1    
    61   31   93 1    
    62   31   94 1    
    63   31   95 1    
    64   32   33 am   BACKBONE|DICT|INTERRES
    65   32   96 1    
    66   33   34 2    
    67   33   35 1    
    68   35   36 1    
    69   35   37 1    
    70   35   97 1    
    71   36   98 1    
    72   36   99 1    
    73   36  100 1    
    74   37   38 am   BACKBONE|DICT|INTERRES
    75   37  101 1    
    76   38   39 2    
    77   38   40 1    
    78   40   41 1    
    79   40   42 1    
    80   40  102 1    
    81   41  103 1    
    82   41  104 1    
    83   41  105 1    
    84   42   43 am   BACKBONE|DICT|INTERRES
    85   42  106 1    
    86   43   44 2    
    87   43   45 1    
    88   45   46 1    
    89   45   49 1    
    90   45  107 1    
    91   46   47 1    
    92   46  108 1    
    93   46  109 1    
    94   47   48 1    
    95   48  110 1    
    96   48  111 1    
    97   49   50 am   BACKBONE|DICT|INTERRES
    98   49  112 1    
    99   50   51 2    
   100   50   52 1    
   101   52   53 1    
   102   52   54 1    
   103   52  113 1    
   104   53  114 1    
   105   53  115 1    
   106   53  116 1    
   107   54   55 am   BACKBONE|DICT|INTERRES
   108   54  117 1    
   109   55   56 2    
   110   55   57 1    
   111   57   58 1    
   112   57   59 1    
   113   57  118 1    
   114   58  119 1    
   115   58  120 1    
   116   58  121 1    
   117   59   60 am   BACKBONE|DICT|INTERRES
   118   59  122 1    
   119   60   61 2    
   120   60   62 1    
   121   62   63 1    
   122   62   64 1    
   123   62  123 1    
   124   63  124 1    
   125   63  125 1    
   126   63  126 1    
   127   64   65 am   BACKBONE|DICT|INTERRES
   128   64  127 1    
   129   65   66 2    
@<TRIPOS>SUBSTRUCTURE
     1 UNK         1 GROUP             0       ****    0 ROOT    
