@<TRIPOS>MOLECULE
3R134
127   129    1
SMALL
USER_CHARGES


@<TRIPOS>ATOM
      1 CA         37.3238  -47.2923  -54.8163 C.3       0 UNK        -0.1968 
      2 C          36.0360  -47.3963  -54.0142 C.2       0 UNK         0.4852 
      3 O          35.7166  -48.4768  -53.5181 O.2       0 UNK        -0.5359 
      4 N          35.3126  -46.2769  -53.8639 N.am      1 UNK        -0.4300 
      5 CA         34.0044  -46.1527  -53.1990 C.3       1 UNK         0.0863 
      6 C6         33.5111  -44.6846  -53.1820 C.3       11 UNK        -0.0953 
      7 S7         33.4572  -43.9250  -54.8402 S.3       11 UNK        -0.2369 
      8 C8         31.8510  -43.0715  -54.8078 C.3       11 UNK         0.0226 
      9 C9         30.7048  -44.0062  -55.1619 C.ar      11 UNK        -0.0699 
     10 C10        29.9392  -44.6096  -54.1587 C.ar      11 UNK        -0.0804 
     11 C11        28.8653  -45.4403  -54.4917 C.ar      11 UNK        -0.0871 
     12 C12        28.5665  -45.6677  -55.8377 C.ar      11 UNK        -0.1008 
     13 C13        29.3172  -45.0645  -56.8500 C.ar      11 UNK        -0.0735 
     14 C14        30.3900  -44.2389  -56.5043 C.ar      11 UNK        -0.0945 
     15 C15        28.9634  -45.2908  -58.3149 C.3       11 UNK         0.0169 
     16 S16        27.2393  -44.8486  -58.7063 S.3       11 UNK        -0.2669 
     17 C17        27.1795  -43.0748  -58.2768 C.3       11 UNK        -0.0850 
     18 CA         26.5344  -42.8044  -56.8843 C.3       10 UNK         0.0855 
     19 C          26.6070  -41.3017  -56.4728 C.2       10 UNK         0.5543 
     20 N          25.6661  -40.7881  -55.6893 N.am      10 UNK        -0.7343 
     21 O          27.5414  -40.5941  -56.8414 O.2       10 UNK        -0.5027 
     22 N          25.2067  -43.4305  -56.7180 N.am      10 UNK        -0.4495 
     23 C          24.0966  -43.1318  -57.4067 C.2       10 UNK         0.4903 
     24 O          24.0436  -42.2790  -58.2949 O.2       10 UNK        -0.4860 
     25 CA         22.8275  -43.9114  -57.0047 C.3       9 UNK         0.0227 
     26 CB         21.6127  -43.5960  -57.9052 C.3       9 UNK        -0.1964 
     27 N          23.0429  -45.3625  -56.9029 N.am      9 UNK        -0.4231 
     28 C          23.4063  -46.1992  -57.8867 C.2       9 UNK         0.5014 
     29 O          23.6150  -45.8583  -59.0537 O.2       9 UNK        -0.5270 
     30 CA         23.4823  -47.6881  -57.5080 C.3       8 UNK         0.0284 
     31 CB         22.1069  -48.3552  -57.6794 C.3       8 UNK        -0.1977 
     32 N          24.4550  -48.3817  -58.3526 N.am      8 UNK        -0.4342 
     33 C          25.7644  -48.4432  -58.0905 C.2       8 UNK         0.5039 
     34 O          26.2710  -48.0466  -57.0372 O.2       8 UNK        -0.5547 
     35 CA         26.6590  -49.0527  -59.1800 C.3       7 UNK         0.0281 
     36 CB         26.5448  -48.2877  -60.5163 C.3       7 UNK        -0.1963 
     37 N          28.0353  -49.0244  -58.6953 N.am      7 UNK        -0.4444 
     38 C          29.0746  -49.7020  -59.1916 C.2       7 UNK         0.5104 
     39 O          28.9958  -50.4641  -60.1560 O.2       7 UNK        -0.5100 
     40 CA         30.4411  -49.4963  -58.5103 C.3       6 UNK         0.0396 
     41 CB         31.3350  -48.5768  -59.3590 C.3       6 UNK        -0.1801 
     42 N          30.3603  -48.9627  -57.1450 N.am      6 UNK        -0.4747 
     43 C          29.9912  -49.6856  -56.0787 C.2       6 UNK         0.5012 
     44 O          29.6154  -50.8586  -56.1449 O.2       6 UNK        -0.5003 
     45 CA         30.0632  -48.9946  -54.7039 C.3       5 UNK         0.0782 
     46 C46        28.6479  -48.7047  -54.1523 C.3       11 UNK        -0.0868 
     47 S47        28.7214  -47.5817  -52.7173 S.3       11 UNK        -0.2515 
     48 C48        27.9991  -46.0565  -53.4013 C.3       11 UNK         0.0199 
     49 N          30.8268  -49.8462  -53.7899 N.am      5 UNK        -0.4607 
     50 C          32.1559  -49.9801  -53.8124 C.2       4 UNK         0.5031 
     51 O          32.9026  -49.3076  -54.5241 O.2       4 UNK        -0.5119 
     52 CA         32.7326  -51.1012  -52.9439 C.3       4 UNK         0.0263 
     53 CB         32.8611  -52.3974  -53.7690 C.3       4 UNK        -0.1967 
     54 N          34.0323  -50.7051  -52.4052 N.am      4 UNK        -0.4237 
     55 C          34.6318  -51.3008  -51.3645 C.2       3 UNK         0.4908 
     56 O          34.1621  -52.2687  -50.7641 O.2       3 UNK        -0.5102 
     57 CA         35.9659  -50.7105  -50.8900 C.3       3 UNK         0.0241 
     58 CB         37.1110  -51.0746  -51.8507 C.3       3 UNK        -0.1971 
     59 N          35.8647  -49.2589  -50.7491 N.am      3 UNK        -0.4139 
     60 C          35.4381  -48.6378  -49.6397 C.2       2 UNK         0.5016 
     61 O          35.1638  -49.2231  -48.5910 O.2       2 UNK        -0.5319 
     62 CA         35.2959  -47.1052  -49.6895 C.3       2 UNK         0.0286 
     63 CB         36.5274  -46.4312  -49.0628 C.3       2 UNK        -0.1963 
     64 N          35.1004  -46.5784  -51.0416 N.am      2 UNK        -0.4790 
     65 C          33.9773  -46.7168  -51.7619 C.2       1 UNK         0.5024 
     66 O          32.9593  -47.2658  -51.3403 O.2       1 UNK        -0.4888 
     67 H67        37.4984  -46.2802  -55.1806 H         1 UNK         0.0892 
     68 H68        38.1736  -47.5837  -54.1997 H         1 UNK         0.0892 
     69 H69        37.2817  -47.9604  -55.6760 H         1 UNK         0.0892 
     70 H70        35.6367  -45.4272  -54.3039 H         1 UNK         0.3107 
     71 H71        33.2965  -46.7418  -53.7851 H         1 UNK         0.0773 
     72 H72        32.5193  -44.6309  -52.7308 H         1 UNK         0.0680 
     73 H73        34.1601  -44.0676  -52.5574 H         1 UNK         0.0680 
     74 H74        31.8813  -42.2490  -55.5240 H         1 UNK         0.0650 
     75 H75        31.6918  -42.6122  -53.8309 H         1 UNK         0.0650 
     76 H76        30.1673  -44.4232  -53.1184 H         1 UNK         0.1397 
     77 H77        27.7229  -46.2863  -56.1033 H         1 UNK         0.1363 
     78 H78        30.9773  -43.7649  -57.2790 H         1 UNK         0.1355 
     79 H79        29.6303  -44.7301  -58.9717 H         1 UNK         0.0707 
     80 H80        29.1086  -46.3436  -58.5528 H         1 UNK         0.0707 
     81 H81        28.1938  -42.6735  -58.3148 H         1 UNK         0.1034 
     82 H82        26.6247  -42.5534  -59.0580 H         1 UNK         0.1034 
     83 H83        27.1637  -43.2965  -56.1443 H         1 UNK         0.0482 
     84 H84        25.7230  -39.8189  -55.4188 H         1 UNK         0.3460 
     85 H85        24.8998  -41.3584  -55.3703 H         1 UNK         0.3460 
     86 H86        25.1519  -44.1472  -56.0099 H         1 UNK         0.2989 
     87 H87        22.5760  -43.5732  -55.9984 H         1 UNK         0.0559 
     88 H88        21.3752  -42.5317  -57.8816 H         1 UNK         0.0848 
     89 H89        20.7230  -44.1322  -57.5753 H         1 UNK         0.0848 
     90 H90        21.7981  -43.8624  -58.9462 H         1 UNK         0.0848 
     91 H91        22.8885  -45.7575  -55.9850 H         1 UNK         0.3144 
     92 H92        23.7815  -47.7749  -56.4608 H         1 UNK         0.0727 
     93 H93        21.7484  -48.2855  -58.7074 H         1 UNK         0.0790 
     94 H94        21.3591  -47.8814  -57.0419 H         1 UNK         0.0790 
     95 H95        22.1412  -49.4102  -57.4066 H         1 UNK         0.0790 
     96 H96        24.1255  -48.6793  -59.2595 H         1 UNK         0.3215 
     97 H97        26.3569  -50.0923  -59.3225 H         1 UNK         0.0863 
     98 H98        26.8307  -47.2419  -60.4051 H         1 UNK         0.0808 
     99 H99        27.1819  -48.7248  -61.2850 H         1 UNK         0.0808 
    100 H100       25.5263  -48.3065  -60.9045 H         1 UNK         0.0808 
    101 H101       28.1501  -48.4740  -57.8527 H         1 UNK         0.3118 
    102 H102       30.9248  -50.4745  -58.4625 H         1 UNK         0.0546 
    103 H103       30.9213  -47.5728  -59.4498 H         1 UNK         0.0828 
    104 H104       31.4503  -48.9712  -60.3696 H         1 UNK         0.0828 
    105 H105       32.3347  -48.4914  -58.9328 H         1 UNK         0.0828 
    106 H106       30.6659  -48.0087  -57.0131 H         1 UNK         0.3005 
    107 H107       30.5930  -48.0451  -54.8190 H         1 UNK         0.1257 
    108 H108       28.1538  -49.6290  -53.8471 H         1 UNK         0.0775 
    109 H109       28.0045  -48.2713  -54.9183 H         1 UNK         0.0775 
    110 H110       26.9980  -46.2686  -53.7804 H         1 UNK         0.0840 
    111 H111       27.8669  -45.3374  -52.5914 H         1 UNK         0.0840 
    112 H112       30.2811  -50.4595  -53.2029 H         1 UNK         0.2987 
    113 H113       32.0509  -51.2728  -52.1078 H         1 UNK         0.0785 
    114 H114       31.9042  -52.6766  -54.2124 H         1 UNK         0.0798 
    115 H115       33.1863  -53.2367  -53.1545 H         1 UNK         0.0798 
    116 H116       33.5767  -52.2820  -54.5841 H         1 UNK         0.0798 
    117 H117       34.4728  -49.9076  -52.8621 H         1 UNK         0.3079 
    118 H118       36.2018  -51.1508  -49.9185 H         1 UNK         0.0794 
    119 H119       38.0620  -50.6709  -51.5029 H         1 UNK         0.0786 
    120 H120       36.9383  -50.7004  -52.8599 H         1 UNK         0.0786 
    121 H121       37.2254  -52.1569  -51.9228 H         1 UNK         0.0786 
    122 H122       35.9908  -48.7181  -51.5995 H         1 UNK         0.3032 
    123 H123       34.4198  -46.8432  -49.0915 H         1 UNK         0.1094 
    124 H124       37.4370  -46.6476  -49.6246 H         1 UNK         0.0794 
    125 H125       36.4082  -45.3485  -49.0177 H         1 UNK         0.0794 
    126 H126       36.6852  -46.7801  -48.0411 H         1 UNK         0.0794 
    127 H127       35.8877  -46.1128  -51.4704 H         1 UNK         0.3016 
@<TRIPOS>BOND
     1    1    2 1    
     2    1   67 1    
     3    1   68 1    
     4    1   69 1    
     5    2    3 2    
     6    2    4 am   BACKBONE|DICT|INTERRES
     7    4    5 1    
     8    4   70 1    
     9    5    6 1    
    10    5   65 1    
    11    5   71 1    
    12    6    7 1    
    13    6   72 1    
    14    6   73 1    
    15    7    8 1    
    16    8    9 1    
    17    8   74 1    
    18    8   75 1    
    19    9   10 ar   
    20    9   14 ar   
    21   10   11 ar   
    22   10   76 1    
    23   11   12 ar   
    24   11   48 1    
    25   12   13 ar   
    26   12   77 1    
    27   13   14 ar   
    28   13   15 1    
    29   14   78 1    
    30   15   16 1    
    31   15   79 1    
    32   15   80 1    
    33   16   17 1    
    34   17   18 1    
    35   17   81 1    
    36   17   82 1    
    37   18   19 1    
    38   18   22 1    
    39   18   83 1    
    40   19   20 am   BACKBONE|DICT|INTERRES
    41   19   21 2    
    42   20   84 1    
    43   20   85 1    
    44   22   23 am   BACKBONE|DICT|INTERRES
    45   22   86 1    
    46   23   24 2    
    47   23   25 1    
    48   25   26 1    
    49   25   27 1    
    50   25   87 1    
    51   26   88 1    
    52   26   89 1    
    53   26   90 1    
    54   27   28 am   BACKBONE|DICT|INTERRES
    55   27   91 1    
    56   28   29 2    
    57   28   30 1    
    58   30   31 1    
    59   30   32 1    
    60   30   92 1    
    61   31   93 1    
    62   31   94 1    
    63   31   95 1    
    64   32   33 am   BACKBONE|DICT|INTERRES
    65   32   96 1    
    66   33   34 2    
    67   33   35 1    
    68   35   36 1    
    69   35   37 1    
    70   35   97 1    
    71   36   98 1    
    72   36   99 1    
    73   36  100 1    
    74   37   38 am   BACKBONE|DICT|INTERRES
    75   37  101 1    
    76   38   39 2    
    77   38   40 1    
    78   40   41 1    
    79   40   42 1    
    80   40  102 1    
    81   41  103 1    
    82   41  104 1    
    83   41  105 1    
    84   42   43 am   BACKBONE|DICT|INTERRES
    85   42  106 1    
    86   43   44 2    
    87   43   45 1    
    88   45   46 1    
    89   45   49 1    
    90   45  107 1    
    91   46   47 1    
    92   46  108 1    
    93   46  109 1    
    94   47   48 1    
    95   48  110 1    
    96   48  111 1    
    97   49   50 am   BACKBONE|DICT|INTERRES
    98   49  112 1    
    99   50   51 2    
   100   50   52 1    
   101   52   53 1    
   102   52   54 1    
   103   52  113 1    
   104   53  114 1    
   105   53  115 1    
   106   53  116 1    
   107   54   55 am   BACKBONE|DICT|INTERRES
   108   54  117 1    
   109   55   56 2    
   110   55   57 1    
   111   57   58 1    
   112   57   59 1    
   113   57  118 1    
   114   58  119 1    
   115   58  120 1    
   116   58  121 1    
   117   59   60 am   BACKBONE|DICT|INTERRES
   118   59  122 1    
   119   60   61 2    
   120   60   62 1    
   121   62   63 1    
   122   62   64 1    
   123   62  123 1    
   124   63  124 1    
   125   63  125 1    
   126   63  126 1    
   127   64   65 am   BACKBONE|DICT|INTERRES
   128   64  127 1    
   129   65   66 2    
@<TRIPOS>SUBSTRUCTURE
     1 UNK         1 GROUP             0       ****    0 ROOT    
