@<TRIPOS>MOLECULE
3R134
127   129    1
SMALL
USER_CHARGES


@<TRIPOS>ATOM
      1 CA         29.4166  -45.3562  -53.3815 C.3       0 UNK        -0.1968 
      2 C          30.5311  -45.5269  -52.3600 C.2       0 UNK         0.4852 
      3 O          30.2683  -45.9754  -51.2427 O.2       0 UNK        -0.5359 
      4 N          31.7698  -45.1656  -52.7231 N.am      1 UNK        -0.4300 
      5 CA         32.9486  -45.1764  -51.8478 C.3       1 UNK         0.0863 
      6 C6         34.0544  -44.2116  -52.3516 C.3       11 UNK        -0.0953 
      7 S7         33.5180  -42.4667  -52.2906 S.3       11 UNK        -0.2369 
      8 C8         33.7981  -41.8979  -53.9979 C.3       11 UNK         0.0226 
      9 C9         32.8479  -42.5610  -54.9825 C.ar      11 UNK        -0.0699 
     10 C10        33.3192  -43.5342  -55.8672 C.ar      11 UNK        -0.0804 
     11 C11        32.4436  -44.1745  -56.7475 C.ar      11 UNK        -0.0871 
     12 C12        31.0905  -43.8204  -56.7527 C.ar      11 UNK        -0.1008 
     13 C13        30.6102  -42.8364  -55.8833 C.ar      11 UNK        -0.0735 
     14 C14        31.4953  -42.2074  -55.0025 C.ar      11 UNK        -0.0945 
     15 C15        29.1290  -42.4879  -55.8627 C.3       11 UNK         0.0169 
     16 S16        28.5698  -41.7896  -57.4469 S.3       11 UNK        -0.2669 
     17 C17        26.8209  -41.4268  -57.0582 C.3       11 UNK        -0.0850 
     18 CA         25.8150  -42.5091  -57.5388 C.3       10 UNK         0.0855 
     19 C          25.6388  -42.5885  -59.0833 C.2       10 UNK         0.5543 
     20 N          25.3667  -43.7573  -59.6545 N.am      10 UNK        -0.7343 
     21 O          25.7221  -41.5769  -59.7756 O.2       10 UNK        -0.5027 
     22 N          26.0796  -43.8200  -56.9294 N.am      10 UNK        -0.4495 
     23 C          25.4463  -44.3337  -55.8707 C.2       10 UNK         0.4903 
     24 O          24.6230  -43.7067  -55.2022 O.2       10 UNK        -0.4860 
     25 CA         25.7875  -45.7908  -55.4846 C.3       9 UNK         0.0227 
     26 CB         24.5744  -46.5254  -54.8779 C.3       9 UNK        -0.1964 
     27 N          26.3797  -46.6084  -56.5553 N.am      9 UNK        -0.4231 
     28 C          25.8733  -46.8712  -57.7716 C.2       9 UNK         0.5014 
     29 O          24.8530  -46.3529  -58.2266 O.2       9 UNK        -0.5270 
     30 CA         26.6522  -47.8745  -58.6339 C.3       8 UNK         0.0284 
     31 CB         27.9106  -47.2233  -59.2343 C.3       8 UNK        -0.1977 
     32 N          27.0197  -49.0642  -57.8636 N.am      8 UNK        -0.4342 
     33 C          26.1940  -50.0908  -57.6120 C.2       8 UNK         0.5039 
     34 O          25.0526  -50.1778  -58.0665 O.2       8 UNK        -0.5547 
     35 CA         26.7234  -51.2166  -56.7052 C.3       7 UNK         0.0281 
     36 CB         27.3217  -52.3531  -57.5500 C.3       7 UNK        -0.1963 
     37 N          27.7215  -50.7370  -55.7457 N.am      7 UNK        -0.4444 
     38 C          27.4133  -50.0800  -54.6163 C.2       7 UNK         0.5104 
     39 O          26.2593  -49.9047  -54.2256 O.2       7 UNK        -0.5100 
     40 CA         28.5731  -49.4940  -53.7870 C.3       6 UNK         0.0396 
     41 CB         28.9221  -50.4236  -52.6151 C.3       6 UNK        -0.1801 
     42 N          29.7856  -49.2194  -54.5635 N.am      6 UNK        -0.4747 
     43 C          29.8631  -48.3506  -55.5836 C.2       6 UNK         0.5012 
     44 O          28.9187  -47.6482  -55.9438 O.2       6 UNK        -0.5003 
     45 CA         31.1943  -48.2592  -56.3590 C.3       5 UNK         0.0782 
     46 C46        32.0593  -47.1492  -55.7256 C.3       11 UNK        -0.0868 
     47 S47        33.5290  -46.7375  -56.7226 S.3       11 UNK        -0.2515 
     48 C48        32.9509  -45.2824  -57.6606 C.3       11 UNK         0.0199 
     49 N          31.9420  -49.5163  -56.4135 N.am      5 UNK        -0.4607 
     50 C          31.4865  -50.7405  -56.7081 C.2       4 UNK         0.5031 
     51 O          30.3625  -50.9667  -57.1552 O.2       4 UNK        -0.5119 
     52 CA         32.4188  -51.9150  -56.3454 C.3       4 UNK         0.0263 
     53 CB         33.1408  -52.4314  -57.5995 C.3       4 UNK        -0.1967 
     54 N          33.4136  -51.5928  -55.3058 N.am      4 UNK        -0.4237 
     55 C          33.1389  -51.1084  -54.0825 C.2       3 UNK         0.4908 
     56 O          31.9872  -50.9420  -53.6746 O.2       3 UNK        -0.5102 
     57 CA         34.3399  -50.6829  -53.2115 C.3       3 UNK         0.0241 
     58 CB         35.5148  -50.1275  -54.0432 C.3       3 UNK        -0.1971 
     59 N          33.9605  -49.6665  -52.2265 N.am      3 UNK        -0.4139 
     60 C          33.3467  -49.8926  -51.0610 C.2       2 UNK         0.5016 
     61 O          33.0589  -51.0188  -50.6515 O.2       2 UNK        -0.5319 
     62 CA         33.0100  -48.6781  -50.1721 C.3       2 UNK         0.0286 
     63 CB         34.1108  -48.4730  -49.1129 C.3       2 UNK        -0.1963 
     64 N          32.7030  -47.4004  -50.8422 N.am      2 UNK        -0.4790 
     65 C          33.4835  -46.6048  -51.5878 C.2       1 UNK         0.5024 
     66 O          34.5778  -46.9478  -52.0374 O.2       1 UNK        -0.4888 
     67 H67        28.7976  -46.2510  -53.4178 H         1 UNK         0.0892 
     68 H68        28.7811  -44.5162  -53.1030 H         1 UNK         0.0892 
     69 H69        29.8014  -45.1743  -54.3824 H         1 UNK         0.0892 
     70 H70        31.9267  -44.7789  -53.6434 H         1 UNK         0.3107 
     71 H71        32.6333  -44.8014  -50.8711 H         1 UNK         0.0773 
     72 H72        34.9445  -44.2885  -51.7243 H         1 UNK         0.0680 
     73 H73        34.3723  -44.4804  -53.3599 H         1 UNK         0.0680 
     74 H74        34.8384  -42.0799  -54.2724 H         1 UNK         0.0650 
     75 H75        33.6565  -40.8169  -54.0358 H         1 UNK         0.0650 
     76 H76        34.3634  -43.8163  -55.8549 H         1 UNK         0.1397 
     77 H77        30.4030  -44.3186  -57.4231 H         1 UNK         0.1363 
     78 H78        31.1321  -41.4551  -54.3154 H         1 UNK         0.1355 
     79 H79        28.9140  -41.7771  -55.0632 H         1 UNK         0.0707 
     80 H80        28.5545  -43.3875  -55.6412 H         1 UNK         0.0707 
     81 H81        26.7115  -41.2861  -55.9819 H         1 UNK         0.1034 
     82 H82        26.5695  -40.4587  -57.4952 H         1 UNK         0.1034 
     83 H83        24.8310  -42.1761  -57.2042 H         1 UNK         0.0482 
     84 H84        25.1955  -44.5864  -59.0955 H         1 UNK         0.3460 
     85 H85        25.2446  -43.7948  -60.6539 H         1 UNK         0.3460 
     86 H86        26.7382  -44.4002  -57.4273 H         1 UNK         0.2989 
     87 H87        26.5512  -45.7210  -54.7091 H         1 UNK         0.0559 
     88 H88        24.2018  -46.0116  -53.9909 H         1 UNK         0.0848 
     89 H89        24.8362  -47.5389  -54.5740 H         1 UNK         0.0848 
     90 H90        23.7493  -46.5919  -55.5880 H         1 UNK         0.0848 
     91 H91        27.2712  -47.0428  -56.3172 H         1 UNK         0.3144 
     92 H92        26.0069  -48.1776  -59.4616 H         1 UNK         0.0727 
     93 H93        28.6037  -46.8758  -58.4682 H         1 UNK         0.0790 
     94 H94        27.6450  -46.3596  -59.8457 H         1 UNK         0.0790 
     95 H95        28.4468  -47.9207  -59.8782 H         1 UNK         0.0790 
     96 H96        27.9238  -49.0549  -57.4126 H         1 UNK         0.3215 
     97 H97        25.8736  -51.6228  -56.1517 H         1 UNK         0.0863 
     98 H98        27.6960  -53.1618  -56.9222 H         1 UNK         0.0808 
     99 H99        28.1438  -52.0050  -58.1761 H         1 UNK         0.0808 
    100 H100       26.5686  -52.7798  -58.2139 H         1 UNK         0.0808 
    101 H101       28.6966  -50.8404  -56.0111 H         1 UNK         0.3118 
    102 H102       28.2248  -48.5467  -53.3723 H         1 UNK         0.0546 
    103 H103       29.2888  -51.3899  -52.9637 H         1 UNK         0.0828 
    104 H104       28.0483  -50.6111  -51.9896 H         1 UNK         0.0828 
    105 H105       29.6904  -49.9863  -51.9768 H         1 UNK         0.0828 
    106 H106       30.6047  -49.7752  -54.3246 H         1 UNK         0.3005 
    107 H107       30.9461  -47.9806  -57.3852 H         1 UNK         0.1257 
    108 H108       31.4691  -46.2512  -55.5605 H         1 UNK         0.0775 
    109 H109       32.4044  -47.4541  -54.7352 H         1 UNK         0.0775 
    110 H110       33.7732  -44.9006  -58.2673 H         1 UNK         0.0840 
    111 H111       32.1746  -45.5969  -58.3600 H         1 UNK         0.0840 
    112 H112       32.8943  -49.4523  -56.0872 H         1 UNK         0.2987 
    113 H113       31.7871  -52.7158  -55.9555 H         1 UNK         0.0785 
    114 H114       32.4254  -52.7010  -58.3780 H         1 UNK         0.0798 
    115 H115       33.7289  -53.3231  -57.3815 H         1 UNK         0.0798 
    116 H116       33.8105  -51.6794  -58.0190 H         1 UNK         0.0798 
    117 H117       34.3831  -51.7036  -55.5665 H         1 UNK         0.3079 
    118 H118       34.6852  -51.5721  -52.6802 H         1 UNK         0.0794 
    119 H119       36.3182  -49.7722  -53.3971 H         1 UNK         0.0786 
    120 H120       35.2065  -49.2908  -54.6723 H         1 UNK         0.0786 
    121 H121       35.9515  -50.8899  -54.6891 H         1 UNK         0.0786 
    122 H122       34.1946  -48.7004  -52.4386 H         1 UNK         0.3032 
    123 H123       32.0951  -48.9487  -49.6416 H         1 UNK         0.1094 
    124 H124       34.2831  -49.3887  -48.5453 H         1 UNK         0.0794 
    125 H125       35.0616  -48.1893  -49.5654 H         1 UNK         0.0794 
    126 H126       33.8345  -47.6983  -48.3976 H         1 UNK         0.0794 
    127 H127       31.7730  -47.0316  -50.6518 H         1 UNK         0.3016 
@<TRIPOS>BOND
     1    1    2 1    
     2    1   67 1    
     3    1   68 1    
     4    1   69 1    
     5    2    3 2    
     6    2    4 am   BACKBONE|DICT|INTERRES
     7    4    5 1    
     8    4   70 1    
     9    5    6 1    
    10    5   65 1    
    11    5   71 1    
    12    6    7 1    
    13    6   72 1    
    14    6   73 1    
    15    7    8 1    
    16    8    9 1    
    17    8   74 1    
    18    8   75 1    
    19    9   10 ar   
    20    9   14 ar   
    21   10   11 ar   
    22   10   76 1    
    23   11   12 ar   
    24   11   48 1    
    25   12   13 ar   
    26   12   77 1    
    27   13   14 ar   
    28   13   15 1    
    29   14   78 1    
    30   15   16 1    
    31   15   79 1    
    32   15   80 1    
    33   16   17 1    
    34   17   18 1    
    35   17   81 1    
    36   17   82 1    
    37   18   19 1    
    38   18   22 1    
    39   18   83 1    
    40   19   20 am   BACKBONE|DICT|INTERRES
    41   19   21 2    
    42   20   84 1    
    43   20   85 1    
    44   22   23 am   BACKBONE|DICT|INTERRES
    45   22   86 1    
    46   23   24 2    
    47   23   25 1    
    48   25   26 1    
    49   25   27 1    
    50   25   87 1    
    51   26   88 1    
    52   26   89 1    
    53   26   90 1    
    54   27   28 am   BACKBONE|DICT|INTERRES
    55   27   91 1    
    56   28   29 2    
    57   28   30 1    
    58   30   31 1    
    59   30   32 1    
    60   30   92 1    
    61   31   93 1    
    62   31   94 1    
    63   31   95 1    
    64   32   33 am   BACKBONE|DICT|INTERRES
    65   32   96 1    
    66   33   34 2    
    67   33   35 1    
    68   35   36 1    
    69   35   37 1    
    70   35   97 1    
    71   36   98 1    
    72   36   99 1    
    73   36  100 1    
    74   37   38 am   BACKBONE|DICT|INTERRES
    75   37  101 1    
    76   38   39 2    
    77   38   40 1    
    78   40   41 1    
    79   40   42 1    
    80   40  102 1    
    81   41  103 1    
    82   41  104 1    
    83   41  105 1    
    84   42   43 am   BACKBONE|DICT|INTERRES
    85   42  106 1    
    86   43   44 2    
    87   43   45 1    
    88   45   46 1    
    89   45   49 1    
    90   45  107 1    
    91   46   47 1    
    92   46  108 1    
    93   46  109 1    
    94   47   48 1    
    95   48  110 1    
    96   48  111 1    
    97   49   50 am   BACKBONE|DICT|INTERRES
    98   49  112 1    
    99   50   51 2    
   100   50   52 1    
   101   52   53 1    
   102   52   54 1    
   103   52  113 1    
   104   53  114 1    
   105   53  115 1    
   106   53  116 1    
   107   54   55 am   BACKBONE|DICT|INTERRES
   108   54  117 1    
   109   55   56 2    
   110   55   57 1    
   111   57   58 1    
   112   57   59 1    
   113   57  118 1    
   114   58  119 1    
   115   58  120 1    
   116   58  121 1    
   117   59   60 am   BACKBONE|DICT|INTERRES
   118   59  122 1    
   119   60   61 2    
   120   60   62 1    
   121   62   63 1    
   122   62   64 1    
   123   62  123 1    
   124   63  124 1    
   125   63  125 1    
   126   63  126 1    
   127   64   65 am   BACKBONE|DICT|INTERRES
   128   64  127 1    
   129   65   66 2    
@<TRIPOS>SUBSTRUCTURE
     1 UNK         1 GROUP             0       ****    0 ROOT    
