@<TRIPOS>MOLECULE
3R134
127   129    1
SMALL
USER_CHARGES


@<TRIPOS>ATOM
      1 CA         37.5074  -44.8787  -50.9019 C.3       0 UNK        -0.1968 
      2 C          36.8574  -45.8939  -51.8297 C.2       0 UNK         0.4852 
      3 O          36.9798  -47.0988  -51.6036 O.2       0 UNK        -0.5359 
      4 N          36.1498  -45.4220  -52.8641 N.am      1 UNK        -0.4300 
      5 CA         35.4557  -46.2157  -53.8880 C.3       1 UNK         0.0863 
      6 C6         35.3108  -45.4141  -55.2128 C.3       11 UNK        -0.0953 
      7 S7         34.5142  -43.7748  -55.0266 S.3       11 UNK        -0.2369 
      8 C8         32.9672  -44.0056  -55.9655 C.3       11 UNK         0.0226 
      9 C9         31.7666  -43.3376  -55.3122 C.ar      11 UNK        -0.0699 
     10 C10        31.4806  -43.5723  -53.9648 C.ar      11 UNK        -0.0804 
     11 C11        30.3313  -43.0399  -53.3769 C.ar      11 UNK        -0.0871 
     12 C12        29.4673  -42.2568  -54.1446 C.ar      11 UNK        -0.1008 
     13 C13        29.7329  -42.0246  -55.4973 C.ar      11 UNK        -0.0735 
     14 C14        30.8920  -42.5551  -56.0724 C.ar      11 UNK        -0.0945 
     15 C15        28.7449  -41.2255  -56.3321 C.3       11 UNK         0.0169 
     16 S16        27.1932  -42.1548  -56.5605 S.3       11 UNK        -0.2669 
     17 C17        27.1778  -42.5067  -58.3535 C.3       11 UNK        -0.0850 
     18 CA         27.7132  -43.9128  -58.7620 C.3       10 UNK         0.0855 
     19 C          29.2597  -43.9665  -58.8963 C.2       10 UNK         0.5543 
     20 N          29.9520  -44.9753  -58.3820 N.am      10 UNK        -0.7343 
     21 O          29.8515  -43.0840  -59.5127 O.2       10 UNK        -0.5027 
     22 N          27.1338  -45.0269  -57.9948 N.am      10 UNK        -0.4495 
     23 C          25.8527  -45.4059  -58.0370 C.2       10 UNK         0.4903 
     24 O          24.9819  -44.8312  -58.6937 O.2       10 UNK        -0.4860 
     25 CA         25.5096  -46.6694  -57.2279 C.3       9 UNK         0.0227 
     26 CB         24.0103  -47.0334  -57.2689 C.3       9 UNK        -0.1964 
     27 N          26.3360  -47.8128  -57.6318 N.am      9 UNK        -0.4231 
     28 C          26.4253  -48.3653  -58.8528 C.2       9 UNK         0.5014 
     29 O          25.7768  -47.9982  -59.8336 O.2       9 UNK        -0.5270 
     30 CA         27.4064  -49.5383  -59.0152 C.3       8 UNK         0.0284 
     31 CB         28.7600  -49.0516  -59.5593 C.3       8 UNK        -0.1977 
     32 N          27.5987  -50.3052  -57.7783 N.am      8 UNK        -0.4342 
     33 C          26.6985  -51.1817  -57.3104 C.2       8 UNK         0.5039 
     34 O          25.6101  -51.3998  -57.8443 O.2       8 UNK        -0.5547 
     35 CA         27.0840  -51.9666  -56.0523 C.3       7 UNK         0.0281 
     36 CB         28.1546  -53.0239  -56.3738 C.3       7 UNK        -0.1963 
     37 N          27.5491  -51.0993  -54.9684 N.am      7 UNK        -0.4444 
     38 C          26.7296  -50.5161  -54.0832 C.2       7 UNK         0.5104 
     39 O          25.5014  -50.5308  -54.1730 O.2       7 UNK        -0.5100 
     40 CA         27.3821  -49.8586  -52.8568 C.3       6 UNK         0.0396 
     41 CB         28.0878  -50.9077  -51.9806 C.3       6 UNK        -0.1801 
     42 N          28.3286  -48.7994  -53.1935 N.am      6 UNK        -0.4747 
     43 C          27.9945  -47.5769  -53.6319 C.2       6 UNK         0.5012 
     44 O          26.8424  -47.2233  -53.8810 O.2       6 UNK        -0.5003 
     45 CA         29.1654  -46.5919  -53.8260 C.3       5 UNK         0.0782 
     46 C46        29.7153  -46.1067  -52.4568 C.3       11 UNK        -0.0868 
     47 S47        28.7839  -44.6891  -51.7871 S.3       11 UNK        -0.2515 
     48 C48        30.0019  -43.3417  -51.9242 C.3       11 UNK         0.0199 
     49 N          30.2084  -47.2098  -54.6484 N.am      5 UNK        -0.4607 
     50 C          30.0644  -47.5353  -55.9392 C.2       4 UNK         0.5031 
     51 O          29.1197  -47.1522  -56.6329 O.2       4 UNK        -0.5119 
     52 CA         31.1135  -48.4817  -56.5554 C.3       4 UNK         0.0263 
     53 CB         32.0900  -47.7467  -57.4831 C.3       4 UNK        -0.1967 
     54 N          31.8733  -49.2238  -55.5482 N.am      4 UNK        -0.4237 
     55 C          31.4254  -50.3225  -54.9265 C.2       3 UNK         0.4908 
     56 O          30.3313  -50.8372  -55.1531 O.2       3 UNK        -0.5102 
     57 CA         32.3304  -50.9199  -53.8367 C.3       3 UNK         0.0241 
     58 CB         33.4283  -51.7952  -54.4612 C.3       3 UNK        -0.1971 
     59 N          32.9372  -49.8954  -52.9821 N.am      3 UNK        -0.4139 
     60 C          32.2399  -49.0752  -52.1839 C.2       2 UNK         0.5016 
     61 O          31.0163  -49.1244  -52.0596 O.2       2 UNK        -0.5319 
     62 CA         33.0274  -47.9873  -51.4349 C.3       2 UNK         0.0286 
     63 CB         33.5068  -48.5129  -50.0732 C.3       2 UNK        -0.1963 
     64 N          34.1717  -47.4389  -52.1733 N.am      2 UNK        -0.4790 
     65 C          34.1326  -46.8397  -53.3725 C.2       1 UNK         0.5024 
     66 O          33.1083  -46.7820  -54.0532 O.2       1 UNK        -0.4888 
     67 H67        38.5865  -45.0286  -50.8797 H         1 UNK         0.0892 
     68 H68        37.3140  -43.8540  -51.2189 H         1 UNK         0.0892 
     69 H69        37.1254  -44.9983  -49.8884 H         1 UNK         0.0892 
     70 H70        36.0540  -44.4224  -52.9795 H         1 UNK         0.3107 
     71 H71        36.0946  -47.0705  -54.1197 H         1 UNK         0.0773 
     72 H72        34.8002  -46.0074  -55.9726 H         1 UNK         0.0680 
     73 H73        36.3054  -45.2341  -55.6235 H         1 UNK         0.0680 
     74 H74        33.1165  -43.6435  -56.9836 H         1 UNK         0.0650 
     75 H75        32.7303  -45.0633  -56.0423 H         1 UNK         0.0650 
     76 H76        32.1460  -44.1950  -53.3833 H         1 UNK         0.1397 
     77 H77        28.5657  -41.8579  -53.6996 H         1 UNK         0.1363 
     78 H78        31.0955  -42.3871  -57.1209 H         1 UNK         0.1355 
     79 H79        28.5222  -40.2868  -55.8229 H         1 UNK         0.0707 
     80 H80        29.1802  -40.9547  -57.2950 H         1 UNK         0.0707 
     81 H81        27.6917  -41.7119  -58.8968 H         1 UNK         0.1034 
     82 H82        26.1394  -42.4221  -58.6757 H         1 UNK         0.1034 
     83 H83        27.3819  -44.0746  -59.7895 H         1 UNK         0.0482 
     84 H84        30.9490  -44.9713  -58.5141 H         1 UNK         0.3460 
     85 H85        29.5212  -45.7280  -57.8605 H         1 UNK         0.3460 
     86 H86        27.7808  -45.5641  -57.4325 H         1 UNK         0.2989 
     87 H87        25.7655  -46.4501  -56.1912 H         1 UNK         0.0559 
     88 H88        23.6695  -47.2458  -58.2827 H         1 UNK         0.0848 
     89 H89        23.4008  -46.2137  -56.8867 H         1 UNK         0.0848 
     90 H90        23.7997  -47.9085  -56.6541 H         1 UNK         0.0848 
     91 H91        26.9731  -48.1551  -56.9252 H         1 UNK         0.3144 
     92 H92        26.9818  -50.2126  -59.7627 H         1 UNK         0.0727 
     93 H93        29.2040  -48.2815  -58.9318 H         1 UNK         0.0790 
     94 H94        28.6381  -48.6164  -60.5521 H         1 UNK         0.0790 
     95 H95        29.4742  -49.8699  -59.6522 H         1 UNK         0.0790 
     96 H96        28.4698  -50.1916  -57.2809 H         1 UNK         0.3215 
     97 H97        26.1939  -52.5027  -55.7141 H         1 UNK         0.0863 
     98 H98        29.0781  -52.5764  -56.7421 H         1 UNK         0.0808 
     99 H99        27.8006  -53.7137  -57.1411 H         1 UNK         0.0808 
    100 H100       28.4004  -53.6180  -55.4935 H         1 UNK         0.0808 
    101 H101       28.5585  -51.0071  -54.8569 H         1 UNK         0.3118 
    102 H102       26.5837  -49.4148  -52.2581 H         1 UNK         0.0546 
    103 H103       28.4447  -50.4675  -51.0494 H         1 UNK         0.0828 
    104 H104       28.9470  -51.3501  -52.4865 H         1 UNK         0.0828 
    105 H105       27.4087  -51.7194  -51.7161 H         1 UNK         0.0828 
    106 H106       29.3063  -48.9837  -52.9813 H         1 UNK         0.3005 
    107 H107       28.7920  -45.7282  -54.3824 H         1 UNK         0.1257 
    108 H108       30.7633  -45.8266  -52.5494 H         1 UNK         0.0775 
    109 H109       29.7058  -46.8984  -51.7061 H         1 UNK         0.0775 
    110 H110       29.5981  -42.4479  -51.4463 H         1 UNK         0.0840 
    111 H111       30.9031  -43.6038  -51.3673 H         1 UNK         0.0840 
    112 H112       31.0601  -47.4833  -54.1762 H         1 UNK         0.2987 
    113 H113       30.5665  -49.2014  -57.1664 H         1 UNK         0.0785 
    114 H114       32.7305  -48.4530  -58.0115 H         1 UNK         0.0798 
    115 H115       31.5609  -47.1720  -58.2422 H         1 UNK         0.0798 
    116 H116       32.7373  -47.0675  -56.9333 H         1 UNK         0.0798 
    117 H117       32.7545  -48.8227  -55.2584 H         1 UNK         0.3079 
    118 H118       31.7063  -51.5551  -53.2043 H         1 UNK         0.0794 
    119 H119       34.0209  -52.2945  -53.6943 H         1 UNK         0.0786 
    120 H120       34.1078  -51.2132  -55.0851 H         1 UNK         0.0786 
    121 H121       32.9943  -52.5739  -55.0902 H         1 UNK         0.0786 
    122 H122       33.9405  -49.7883  -53.0213 H         1 UNK         0.3032 
    123 H123       32.3367  -47.1623  -51.2523 H         1 UNK         0.1094 
    124 H124       32.6730  -48.9084  -49.4910 H         1 UNK         0.0794 
    125 H125       34.2379  -49.3147  -50.1840 H         1 UNK         0.0794 
    126 H126       33.9655  -47.7205  -49.4813 H         1 UNK         0.0794 
    127 H127       35.0763  -47.4651  -51.7094 H         1 UNK         0.3016 
@<TRIPOS>BOND
     1    1    2 1    
     2    1   67 1    
     3    1   68 1    
     4    1   69 1    
     5    2    3 2    
     6    2    4 am   BACKBONE|DICT|INTERRES
     7    4    5 1    
     8    4   70 1    
     9    5    6 1    
    10    5   65 1    
    11    5   71 1    
    12    6    7 1    
    13    6   72 1    
    14    6   73 1    
    15    7    8 1    
    16    8    9 1    
    17    8   74 1    
    18    8   75 1    
    19    9   10 ar   
    20    9   14 ar   
    21   10   11 ar   
    22   10   76 1    
    23   11   12 ar   
    24   11   48 1    
    25   12   13 ar   
    26   12   77 1    
    27   13   14 ar   
    28   13   15 1    
    29   14   78 1    
    30   15   16 1    
    31   15   79 1    
    32   15   80 1    
    33   16   17 1    
    34   17   18 1    
    35   17   81 1    
    36   17   82 1    
    37   18   19 1    
    38   18   22 1    
    39   18   83 1    
    40   19   20 am   BACKBONE|DICT|INTERRES
    41   19   21 2    
    42   20   84 1    
    43   20   85 1    
    44   22   23 am   BACKBONE|DICT|INTERRES
    45   22   86 1    
    46   23   24 2    
    47   23   25 1    
    48   25   26 1    
    49   25   27 1    
    50   25   87 1    
    51   26   88 1    
    52   26   89 1    
    53   26   90 1    
    54   27   28 am   BACKBONE|DICT|INTERRES
    55   27   91 1    
    56   28   29 2    
    57   28   30 1    
    58   30   31 1    
    59   30   32 1    
    60   30   92 1    
    61   31   93 1    
    62   31   94 1    
    63   31   95 1    
    64   32   33 am   BACKBONE|DICT|INTERRES
    65   32   96 1    
    66   33   34 2    
    67   33   35 1    
    68   35   36 1    
    69   35   37 1    
    70   35   97 1    
    71   36   98 1    
    72   36   99 1    
    73   36  100 1    
    74   37   38 am   BACKBONE|DICT|INTERRES
    75   37  101 1    
    76   38   39 2    
    77   38   40 1    
    78   40   41 1    
    79   40   42 1    
    80   40  102 1    
    81   41  103 1    
    82   41  104 1    
    83   41  105 1    
    84   42   43 am   BACKBONE|DICT|INTERRES
    85   42  106 1    
    86   43   44 2    
    87   43   45 1    
    88   45   46 1    
    89   45   49 1    
    90   45  107 1    
    91   46   47 1    
    92   46  108 1    
    93   46  109 1    
    94   47   48 1    
    95   48  110 1    
    96   48  111 1    
    97   49   50 am   BACKBONE|DICT|INTERRES
    98   49  112 1    
    99   50   51 2    
   100   50   52 1    
   101   52   53 1    
   102   52   54 1    
   103   52  113 1    
   104   53  114 1    
   105   53  115 1    
   106   53  116 1    
   107   54   55 am   BACKBONE|DICT|INTERRES
   108   54  117 1    
   109   55   56 2    
   110   55   57 1    
   111   57   58 1    
   112   57   59 1    
   113   57  118 1    
   114   58  119 1    
   115   58  120 1    
   116   58  121 1    
   117   59   60 am   BACKBONE|DICT|INTERRES
   118   59  122 1    
   119   60   61 2    
   120   60   62 1    
   121   62   63 1    
   122   62   64 1    
   123   62  123 1    
   124   63  124 1    
   125   63  125 1    
   126   63  126 1    
   127   64   65 am   BACKBONE|DICT|INTERRES
   128   64  127 1    
   129   65   66 2    
@<TRIPOS>SUBSTRUCTURE
     1 UNK         1 GROUP             0       ****    0 ROOT    
