@<TRIPOS>MOLECULE
3R134
127   129    1
SMALL
USER_CHARGES


@<TRIPOS>ATOM
      1 CA         35.9005  -44.7145  -48.3693 C.3       0 UNK        -0.1968 
      2 C          36.3346  -43.8286  -49.5351 C.2       0 UNK         0.4852 
      3 O          37.2426  -43.0177  -49.3552 O.2       0 UNK        -0.5359 
      4 N          35.7345  -43.9122  -50.7334 N.am      1 UNK        -0.4300 
      5 CA         34.6798  -44.8222  -51.2040 C.3       1 UNK         0.0863 
      6 C6         33.3998  -44.8094  -50.3166 C.3       11 UNK        -0.0953 
      7 S7         31.8795  -45.1974  -51.2446 S.3       11 UNK        -0.2369 
      8 C8         31.4711  -43.5757  -51.9569 C.3       11 UNK         0.0226 
      9 C9         31.0232  -43.7338  -53.3993 C.ar      11 UNK        -0.0699 
     10 C10        31.9747  -43.8271  -54.4184 C.ar      11 UNK        -0.0804 
     11 C11        31.5783  -43.9976  -55.7474 C.ar      11 UNK        -0.0871 
     12 C12        30.2154  -44.0636  -56.0534 C.ar      11 UNK        -0.1008 
     13 C13        29.2543  -43.9729  -55.0421 C.ar      11 UNK        -0.0735 
     14 C14        29.6643  -43.8047  -53.7161 C.ar      11 UNK        -0.0945 
     15 C15        27.7752  -44.1006  -55.3694 C.3       11 UNK         0.0169 
     16 S16        27.0713  -42.5329  -55.9707 S.3       11 UNK        -0.2669 
     17 C17        27.1622  -42.7492  -57.7836 C.3       11 UNK        -0.0850 
     18 CA         25.8219  -43.2546  -58.3827 C.3       10 UNK         0.0855 
     19 C          25.8469  -43.2437  -59.9402 C.2       10 UNK         0.5543 
     20 N          25.5586  -44.3426  -60.6291 N.am      10 UNK        -0.7343 
     21 O          26.1256  -42.2079  -60.5392 O.2       10 UNK        -0.5027 
     22 N          25.4376  -44.5498  -57.8041 N.am      10 UNK        -0.4495 
     23 C          24.1856  -44.9821  -57.6237 C.2       10 UNK         0.4903 
     24 O          23.1832  -44.3106  -57.8733 O.2       10 UNK        -0.4860 
     25 CA         24.0443  -46.4155  -57.0716 C.3       9 UNK         0.0227 
     26 CB         22.6582  -47.0307  -57.3578 C.3       9 UNK        -0.1964 
     27 N          25.1142  -47.3229  -57.5141 N.am      9 UNK        -0.4231 
     28 C          25.4284  -47.6468  -58.7816 C.2       9 UNK         0.5014 
     29 O          24.8679  -47.1610  -59.7654 O.2       9 UNK        -0.5270 
     30 CA         26.5764  -48.6495  -59.0125 C.3       8 UNK         0.0284 
     31 CB         27.7473  -47.9711  -59.7444 C.3       8 UNK        -0.1977 
     32 N          27.0619  -49.2703  -57.7760 N.am      8 UNK        -0.4342 
     33 C          26.4188  -50.2539  -57.1275 C.2       8 UNK         0.5039 
     34 O          25.3954  -50.7879  -57.5573 O.2       8 UNK        -0.5547 
     35 CA         26.9738  -50.7173  -55.7660 C.3       7 UNK         0.0281 
     36 CB         27.6652  -52.0827  -55.9125 C.3       7 UNK        -0.1963 
     37 N          27.8934  -49.7773  -55.1165 N.am      7 UNK        -0.4444 
     38 C          27.5975  -48.5256  -54.7366 C.2       7 UNK         0.5104 
     39 O          26.4892  -48.0082  -54.8849 O.2       7 UNK        -0.5100 
     40 CA         28.7596  -47.6849  -54.1763 C.3       6 UNK         0.0396 
     41 CB         28.9815  -47.9724  -52.6848 C.3       6 UNK        -0.1801 
     42 N          30.0153  -47.8782  -54.9097 N.am      6 UNK        -0.4747 
     43 C          30.1756  -47.6547  -56.2239 C.2       6 UNK         0.5012 
     44 O          29.2758  -47.2437  -56.9566 O.2       6 UNK        -0.5003 
     45 CA         31.5362  -48.0329  -56.8378 C.3       5 UNK         0.0782 
     46 C46        32.6196  -46.9465  -56.6278 C.3       11 UNK        -0.0868 
     47 S47        32.4647  -45.6086  -57.8599 S.3       11 UNK        -0.2515 
     48 C48        32.6301  -44.1037  -56.8447 C.3       11 UNK         0.0199 
     49 N          31.9666  -49.3406  -56.3428 N.am      5 UNK        -0.4607 
     50 C          31.5139  -50.5080  -56.8210 C.2       4 UNK         0.5031 
     51 O          30.7438  -50.6030  -57.7763 O.2       4 UNK        -0.5119 
     52 CA         31.9896  -51.7896  -56.1141 C.3       4 UNK         0.0263 
     53 CB         33.2401  -52.3522  -56.8085 C.3       4 UNK        -0.1967 
     54 N          32.2711  -51.5976  -54.6892 N.am      4 UNK        -0.4237 
     55 C          31.3438  -51.3092  -53.7654 C.2       3 UNK         0.4908 
     56 O          30.1436  -51.1973  -54.0094 O.2       3 UNK        -0.5102 
     57 CA         31.8488  -51.0506  -52.3371 C.3       3 UNK         0.0241 
     58 CB         32.0029  -52.3737  -51.5702 C.3       3 UNK        -0.1971 
     59 N          33.1069  -50.2968  -52.2838 N.am      3 UNK        -0.4139 
     60 C          33.2773  -49.0649  -52.7822 C.2       2 UNK         0.5016 
     61 O          32.4135  -48.4468  -53.4110 O.2       2 UNK        -0.5319 
     62 CA         34.6467  -48.4168  -52.5759 C.3       2 UNK         0.0286 
     63 CB         35.5053  -48.5272  -53.8481 C.3       2 UNK        -0.1963 
     64 N          34.4128  -47.0167  -52.2462 N.am      2 UNK        -0.4790 
     65 C          35.2091  -46.2437  -51.5033 C.2       1 UNK         0.5024 
     66 O          36.3045  -46.6149  -51.0754 O.2       1 UNK        -0.4888 
     67 H67        34.9941  -44.3209  -47.9107 H         1 UNK         0.0892 
     68 H68        35.7230  -45.7435  -48.6744 H         1 UNK         0.0892 
     69 H69        36.6758  -44.7363  -47.6039 H         1 UNK         0.0892 
     70 H70        36.0924  -43.3057  -51.4578 H         1 UNK         0.3107 
     71 H71        34.4106  -44.4060  -52.1758 H         1 UNK         0.0773 
     72 H72        33.2640  -43.8311  -49.8526 H         1 UNK         0.0680 
     73 H73        33.4784  -45.5214  -49.4940 H         1 UNK         0.0680 
     74 H74        32.3344  -42.9097  -51.9166 H         1 UNK         0.0650 
     75 H75        30.6911  -43.1052  -51.3565 H         1 UNK         0.0650 
     76 H76        33.0260  -43.7761  -54.1721 H         1 UNK         0.1397 
     77 H77        29.9075  -44.2119  -57.0784 H         1 UNK         0.1363 
     78 H78        28.9265  -43.7440  -52.9278 H         1 UNK         0.1355 
     79 H79        27.6282  -44.8987  -56.0979 H         1 UNK         0.0707 
     80 H80        27.2208  -44.4062  -54.4807 H         1 UNK         0.0707 
     81 H81        27.4264  -41.7794  -58.2097 H         1 UNK         0.1034 
     82 H82        27.9795  -43.4213  -58.0463 H         1 UNK         0.1034 
     83 H83        25.0566  -42.5269  -58.1059 H         1 UNK         0.0482 
     84 H84        25.2995  -45.2058  -60.1649 H         1 UNK         0.3460 
     85 H85        25.5771  -44.3063  -61.6357 H         1 UNK         0.3460 
     86 H86        26.1926  -45.1848  -57.5966 H         1 UNK         0.2989 
     87 H87        24.1507  -46.3325  -55.9889 H         1 UNK         0.0559 
     88 H88        22.4564  -47.0922  -58.4277 H         1 UNK         0.0848 
     89 H89        21.8631  -46.4325  -56.9111 H         1 UNK         0.0848 
     90 H90        22.5769  -48.0355  -56.9431 H         1 UNK         0.0848 
     91 H91        25.6557  -47.7431  -56.7645 H         1 UNK         0.3144 
     92 H92        26.1908  -49.4379  -59.6623 H         1 UNK         0.0727 
     93 H93        28.5982  -48.6442  -59.8517 H         1 UNK         0.0790 
     94 H94        28.0880  -47.0752  -59.2254 H         1 UNK         0.0790 
     95 H95        27.4491  -47.6631  -60.7475 H         1 UNK         0.0790 
     96 H96        27.8894  -48.8589  -57.3580 H         1 UNK         0.3215 
     97 H97        26.1161  -50.8398  -55.1015 H         1 UNK         0.0863 
     98 H98        27.9443  -52.4926  -54.9418 H         1 UNK         0.0808 
     99 H99        28.5680  -52.0122  -56.5202 H         1 UNK         0.0808 
    100 H100       27.0058  -52.8094  -56.3893 H         1 UNK         0.0808 
    101 H101       28.8193  -50.1367  -54.8943 H         1 UNK         0.3118 
    102 H102       28.4845  -46.6354  -54.2765 H         1 UNK         0.0546 
    103 H103       29.2552  -49.0127  -52.5107 H         1 UNK         0.0828 
    104 H104       28.0763  -47.7716  -52.1105 H         1 UNK         0.0828 
    105 H105       29.7728  -47.3444  -52.2748 H         1 UNK         0.0828 
    106 H106       30.8197  -48.1874  -54.3675 H         1 UNK         0.3005 
    107 H107       31.3744  -48.1343  -57.9142 H         1 UNK         0.1257 
    108 H108       33.6126  -47.3778  -56.7632 H         1 UNK         0.0775 
    109 H109       32.6035  -46.5558  -55.6086 H         1 UNK         0.0775 
    110 H110       33.6368  -44.0786  -56.4246 H         1 UNK         0.0840 
    111 H111       32.5482  -43.2314  -57.4945 H         1 UNK         0.0840 
    112 H112       32.5396  -49.3390  -55.5105 H         1 UNK         0.2987 
    113 H113       31.1885  -52.5271  -56.2006 H         1 UNK         0.0785 
    114 H114       33.0506  -52.5292  -57.8683 H         1 UNK         0.0798 
    115 H115       33.5421  -53.3048  -56.3726 H         1 UNK         0.0798 
    116 H116       34.0854  -51.6663  -56.7390 H         1 UNK         0.0798 
    117 H117       33.2347  -51.6709  -54.3973 H         1 UNK         0.3079 
    118 H118       31.0907  -50.4520  -51.8282 H         1 UNK         0.0794 
    119 H119       32.2574  -52.1993  -50.5246 H         1 UNK         0.0786 
    120 H120       32.7776  -53.0072  -52.0040 H         1 UNK         0.0786 
    121 H121       31.0717  -52.9423  -51.5833 H         1 UNK         0.0786 
    122 H122       33.8731  -50.7352  -51.7926 H         1 UNK         0.3032 
    123 H123       35.1561  -48.9084  -51.7436 H         1 UNK         0.1094 
    124 H124       35.0316  -48.0340  -54.6978 H         1 UNK         0.0794 
    125 H125       36.4859  -48.0733  -53.7041 H         1 UNK         0.0794 
    126 H126       35.6689  -49.5701  -54.1224 H         1 UNK         0.0794 
    127 H127       33.4976  -46.6749  -52.5203 H         1 UNK         0.3016 
@<TRIPOS>BOND
     1    1    2 1    
     2    1   67 1    
     3    1   68 1    
     4    1   69 1    
     5    2    3 2    
     6    2    4 am   BACKBONE|DICT|INTERRES
     7    4    5 1    
     8    4   70 1    
     9    5    6 1    
    10    5   65 1    
    11    5   71 1    
    12    6    7 1    
    13    6   72 1    
    14    6   73 1    
    15    7    8 1    
    16    8    9 1    
    17    8   74 1    
    18    8   75 1    
    19    9   10 ar   
    20    9   14 ar   
    21   10   11 ar   
    22   10   76 1    
    23   11   12 ar   
    24   11   48 1    
    25   12   13 ar   
    26   12   77 1    
    27   13   14 ar   
    28   13   15 1    
    29   14   78 1    
    30   15   16 1    
    31   15   79 1    
    32   15   80 1    
    33   16   17 1    
    34   17   18 1    
    35   17   81 1    
    36   17   82 1    
    37   18   19 1    
    38   18   22 1    
    39   18   83 1    
    40   19   20 am   BACKBONE|DICT|INTERRES
    41   19   21 2    
    42   20   84 1    
    43   20   85 1    
    44   22   23 am   BACKBONE|DICT|INTERRES
    45   22   86 1    
    46   23   24 2    
    47   23   25 1    
    48   25   26 1    
    49   25   27 1    
    50   25   87 1    
    51   26   88 1    
    52   26   89 1    
    53   26   90 1    
    54   27   28 am   BACKBONE|DICT|INTERRES
    55   27   91 1    
    56   28   29 2    
    57   28   30 1    
    58   30   31 1    
    59   30   32 1    
    60   30   92 1    
    61   31   93 1    
    62   31   94 1    
    63   31   95 1    
    64   32   33 am   BACKBONE|DICT|INTERRES
    65   32   96 1    
    66   33   34 2    
    67   33   35 1    
    68   35   36 1    
    69   35   37 1    
    70   35   97 1    
    71   36   98 1    
    72   36   99 1    
    73   36  100 1    
    74   37   38 am   BACKBONE|DICT|INTERRES
    75   37  101 1    
    76   38   39 2    
    77   38   40 1    
    78   40   41 1    
    79   40   42 1    
    80   40  102 1    
    81   41  103 1    
    82   41  104 1    
    83   41  105 1    
    84   42   43 am   BACKBONE|DICT|INTERRES
    85   42  106 1    
    86   43   44 2    
    87   43   45 1    
    88   45   46 1    
    89   45   49 1    
    90   45  107 1    
    91   46   47 1    
    92   46  108 1    
    93   46  109 1    
    94   47   48 1    
    95   48  110 1    
    96   48  111 1    
    97   49   50 am   BACKBONE|DICT|INTERRES
    98   49  112 1    
    99   50   51 2    
   100   50   52 1    
   101   52   53 1    
   102   52   54 1    
   103   52  113 1    
   104   53  114 1    
   105   53  115 1    
   106   53  116 1    
   107   54   55 am   BACKBONE|DICT|INTERRES
   108   54  117 1    
   109   55   56 2    
   110   55   57 1    
   111   57   58 1    
   112   57   59 1    
   113   57  118 1    
   114   58  119 1    
   115   58  120 1    
   116   58  121 1    
   117   59   60 am   BACKBONE|DICT|INTERRES
   118   59  122 1    
   119   60   61 2    
   120   60   62 1    
   121   62   63 1    
   122   62   64 1    
   123   62  123 1    
   124   63  124 1    
   125   63  125 1    
   126   63  126 1    
   127   64   65 am   BACKBONE|DICT|INTERRES
   128   64  127 1    
   129   65   66 2    
@<TRIPOS>SUBSTRUCTURE
     1 UNK         1 GROUP             0       ****    0 ROOT    
