@<TRIPOS>MOLECULE
3R134
127   129    1
SMALL
USER_CHARGES


@<TRIPOS>ATOM
      1 CA         34.5936  -43.0761  -59.5368 C.3       0 UNK        -0.1968 
      2 C          33.9209  -43.9286  -58.4705 C.2       0 UNK         0.4852 
      3 O          32.8079  -44.4078  -58.6863 O.2       0 UNK        -0.5359 
      4 N          34.5853  -44.1108  -57.3230 N.am      1 UNK        -0.4300 
      5 CA         34.1227  -44.9308  -56.1981 C.3       1 UNK         0.0863 
      6 C6         34.9425  -44.6487  -54.9122 C.3       11 UNK        -0.0953 
      7 S7         34.8983  -42.8985  -54.4043 S.3       11 UNK        -0.2369 
      8 C8         34.1433  -43.0068  -52.7454 C.3       11 UNK         0.0226 
      9 C9         32.6507  -43.3371  -52.7344 C.ar      11 UNK        -0.0699 
     10 C10        32.1207  -44.0663  -51.6641 C.ar      11 UNK        -0.0804 
     11 C11        30.7469  -44.3130  -51.5762 C.ar      11 UNK        -0.0871 
     12 C12        29.8982  -43.8305  -52.5755 C.ar      11 UNK        -0.1008 
     13 C13        30.4125  -43.1190  -53.6632 C.ar      11 UNK        -0.0735 
     14 C14        31.7864  -42.8699  -53.7321 C.ar      11 UNK        -0.0945 
     15 C15        29.4879  -42.5971  -54.7544 C.3       11 UNK         0.0169 
     16 S16        28.7429  -43.9574  -55.7056 S.3       11 UNK        -0.2669 
     17 C17        27.1561  -44.2157  -54.8284 C.3       11 UNK        -0.0850 
     18 CA         25.9253  -44.1436  -55.7678 C.3       10 UNK         0.0855 
     19 C          25.6809  -42.6989  -56.2991 C.2       10 UNK         0.5543 
     20 N          25.8316  -42.4312  -57.5907 N.am      10 UNK        -0.7343 
     21 O          25.3403  -41.8108  -55.5216 O.2       10 UNK        -0.5027 
     22 N          25.9918  -45.1966  -56.7910 N.am      10 UNK        -0.4495 
     23 C          24.9827  -45.5953  -57.5742 C.2       10 UNK         0.4903 
     24 O          23.8399  -45.1447  -57.4883 O.2       10 UNK        -0.4860 
     25 CA         25.2680  -46.7033  -58.6074 C.3       9 UNK         0.0227 
     26 CB         24.8748  -46.2715  -60.0357 C.3       9 UNK        -0.1964 
     27 N          26.6311  -47.2555  -58.5607 N.am      9 UNK        -0.4231 
     28 C          27.7874  -46.6775  -58.9285 C.2       9 UNK         0.5014 
     29 O          27.8546  -45.5433  -59.4027 O.2       9 UNK        -0.5270 
     30 CA         29.0894  -47.4778  -58.7083 C.3       8 UNK         0.0284 
     31 CB         30.1863  -46.6100  -58.0647 C.3       8 UNK        -0.1977 
     32 N          28.8756  -48.6651  -57.8754 N.am      8 UNK        -0.4342 
     33 C          28.6608  -49.9043  -58.3424 C.2       8 UNK         0.5039 
     34 O          28.7238  -50.2033  -59.5350 O.2       8 UNK        -0.5547 
     35 CA         28.2681  -50.9941  -57.3229 C.3       7 UNK         0.0281 
     36 CB         29.4740  -51.8802  -56.9736 C.3       7 UNK        -0.1963 
     37 N          27.6791  -50.4680  -56.0874 N.am      7 UNK        -0.4444 
     38 C          26.5205  -49.7982  -56.0130 C.2       7 UNK         0.5104 
     39 O          25.7774  -49.6196  -56.9770 O.2       7 UNK        -0.5100 
     40 CA         26.1588  -49.1647  -54.6574 C.3       6 UNK         0.0396 
     41 CB         25.1653  -50.0565  -53.8980 C.3       6 UNK        -0.1801 
     42 N          27.3124  -48.8856  -53.7942 N.am      6 UNK        -0.4747 
     43 C          28.3448  -48.0814  -54.0836 C.2       6 UNK         0.5012 
     44 O          28.4685  -47.5083  -55.1658 O.2       6 UNK        -0.5003 
     45 CA         29.4476  -47.9464  -53.0143 C.3       5 UNK         0.0782 
     46 C46        28.9339  -47.2223  -51.7419 C.3       11 UNK        -0.0868 
     47 S47        30.2837  -46.8658  -50.5646 S.3       11 UNK        -0.2515 
     48 C48        30.1771  -45.0577  -50.3764 C.3       11 UNK         0.0199 
     49 N          30.1161  -49.2312  -52.7522 N.am      5 UNK        -0.4607 
     50 C          29.6106  -50.3326  -52.1731 C.2       4 UNK         0.5031 
     51 O          28.4639  -50.4023  -51.7286 O.2       4 UNK        -0.5119 
     52 CA         30.4957  -51.5925  -52.1145 C.3       4 UNK         0.0263 
     53 CB         29.8880  -52.7126  -52.9766 C.3       4 UNK        -0.1967 
     54 N          31.8708  -51.3545  -52.5581 N.am      4 UNK        -0.4237 
     55 C          32.8626  -50.9217  -51.7689 C.2       3 UNK         0.4908 
     56 O          32.7487  -50.7437  -50.5558 O.2       3 UNK        -0.5102 
     57 CA         34.2097  -50.6201  -52.4527 C.3       3 UNK         0.0241 
     58 CB         35.1291  -51.8512  -52.3928 C.3       3 UNK        -0.1971 
     59 N          34.1010  -50.1605  -53.8454 N.am      3 UNK        -0.4139 
     60 C          33.4597  -49.0498  -54.2333 C.2       2 UNK         0.5016 
     61 O          32.8040  -48.3342  -53.4723 O.2       2 UNK        -0.5319 
     62 CA         33.5254  -48.6845  -55.7190 C.3       2 UNK         0.0286 
     63 CB         32.3733  -49.3427  -56.4948 C.3       2 UNK        -0.1963 
     64 N          33.4118  -47.2317  -55.8041 N.am      2 UNK        -0.4790 
     65 C          34.1997  -46.4356  -56.5313 C.2       1 UNK         0.5024 
     66 O          35.0087  -46.8504  -57.3660 O.2       1 UNK        -0.4888 
     67 H67        33.9686  -42.2171  -59.7794 H         1 UNK         0.0892 
     68 H68        34.7397  -43.6594  -60.4455 H         1 UNK         0.0892 
     69 H69        35.5658  -42.7066  -59.2110 H         1 UNK         0.0892 
     70 H70        35.5002  -43.6999  -57.2084 H         1 UNK         0.3107 
     71 H71        33.0764  -44.6798  -56.0073 H         1 UNK         0.0773 
     72 H72        35.9889  -44.9258  -55.0550 H         1 UNK         0.0680 
     73 H73        34.5792  -45.2637  -54.0863 H         1 UNK         0.0680 
     74 H74        34.7013  -43.7369  -52.1568 H         1 UNK         0.0650 
     75 H75        34.2787  -42.0458  -52.2479 H         1 UNK         0.0650 
     76 H76        32.7754  -44.4240  -50.8809 H         1 UNK         0.1397 
     77 H77        28.8347  -44.0051  -52.5058 H         1 UNK         0.1363 
     78 H78        32.1792  -42.2949  -54.5590 H         1 UNK         0.1355 
     79 H79        30.0422  -41.9657  -55.4504 H         1 UNK         0.0707 
     80 H80        28.7179  -41.9580  -54.3205 H         1 UNK         0.0707 
     81 H81        27.0450  -43.4986  -54.0137 H         1 UNK         0.1034 
     82 H82        27.1922  -45.1938  -54.3477 H         1 UNK         0.1034 
     83 H83        25.0514  -44.3744  -55.1556 H         1 UNK         0.0482 
     84 H84        25.6684  -41.4959  -57.9277 H         1 UNK         0.3460 
     85 H85        26.1318  -43.1556  -58.2240 H         1 UNK         0.3460 
     86 H86        26.9077  -45.5934  -56.9435 H         1 UNK         0.2989 
     87 H87        24.6141  -47.5322  -58.3334 H         1 UNK         0.0559 
     88 H88        25.4263  -45.3904  -60.3640 H         1 UNK         0.0848 
     89 H89        23.8142  -46.0225  -60.0887 H         1 UNK         0.0848 
     90 H90        25.0545  -47.0694  -60.7561 H         1 UNK         0.0848 
     91 H91        26.6776  -48.1860  -58.1593 H         1 UNK         0.3144 
     92 H92        29.4424  -47.7744  -59.6979 H         1 UNK         0.0727 
     93 H93        31.1404  -47.1337  -58.0336 H         1 UNK         0.0790 
     94 H94        29.9322  -46.3210  -57.0457 H         1 UNK         0.0790 
     95 H95        30.3514  -45.6919  -58.6299 H         1 UNK         0.0790 
     96 H96        28.7783  -48.4850  -56.8797 H         1 UNK         0.3215 
     97 H97        27.5162  -51.6218  -57.8065 H         1 UNK         0.0863 
     98 H98        29.1661  -52.7576  -56.4048 H         1 UNK         0.0808 
     99 H99        30.2156  -51.3410  -56.3861 H         1 UNK         0.0808 
    100 H100       29.9703  -52.2423  -57.8753 H         1 UNK         0.0808 
    101 H101       28.2177  -50.5670  -55.2403 H         1 UNK         0.3118 
    102 H102       25.6720  -48.2101  -54.8681 H         1 UNK         0.0546 
    103 H103       24.2835  -50.2660  -54.5053 H         1 UNK         0.0828 
    104 H104       24.8190  -49.5752  -52.9833 H         1 UNK         0.0828 
    105 H105       25.6100  -51.0146  -53.6255 H         1 UNK         0.0828 
    106 H106       27.3601  -49.3886  -52.9109 H         1 UNK         0.3005 
    107 H107       30.2119  -47.3041  -53.4574 H         1 UNK         0.1257 
    108 H108       28.1824  -47.8196  -51.2238 H         1 UNK         0.0775 
    109 H109       28.4348  -46.2912  -52.0122 H         1 UNK         0.0775 
    110 H110       29.1410  -44.7671  -50.1956 H         1 UNK         0.0840 
    111 H111       30.7270  -44.7700  -49.4790 H         1 UNK         0.0840 
    112 H112       31.0939  -49.2389  -53.0233 H         1 UNK         0.2987 
    113 H113       30.5039  -51.9319  -51.0764 H         1 UNK         0.0785 
    114 H114       28.8719  -52.9482  -52.6568 H         1 UNK         0.0798 
    115 H115       30.4691  -53.6317  -52.8983 H         1 UNK         0.0798 
    116 H116       29.8421  -52.4336  -54.0288 H         1 UNK         0.0798 
    117 H117       32.0654  -51.4898  -53.5393 H         1 UNK         0.3079 
    118 H118       34.6817  -49.8162  -51.8835 H         1 UNK         0.0794 
    119 H119       34.7304  -52.6827  -52.9754 H         1 UNK         0.0786 
    120 H120       35.2478  -52.2005  -51.3659 H         1 UNK         0.0786 
    121 H121       36.1258  -51.6222  -52.7706 H         1 UNK         0.0786 
    122 H122       34.6021  -50.7011  -54.5365 H         1 UNK         0.3032 
    123 H123       34.4835  -49.0213  -56.1224 H         1 UNK         0.1094 
    124 H124       32.4167  -49.0891  -57.5539 H         1 UNK         0.0794 
    125 H125       32.4289  -50.4293  -56.4253 H         1 UNK         0.0794 
    126 H126       31.3988  -49.0327  -56.1146 H         1 UNK         0.0794 
    127 H127       32.8355  -46.8273  -55.0756 H         1 UNK         0.3016 
@<TRIPOS>BOND
     1    1    2 1    
     2    1   67 1    
     3    1   68 1    
     4    1   69 1    
     5    2    3 2    
     6    2    4 am   BACKBONE|DICT|INTERRES
     7    4    5 1    
     8    4   70 1    
     9    5    6 1    
    10    5   65 1    
    11    5   71 1    
    12    6    7 1    
    13    6   72 1    
    14    6   73 1    
    15    7    8 1    
    16    8    9 1    
    17    8   74 1    
    18    8   75 1    
    19    9   10 ar   
    20    9   14 ar   
    21   10   11 ar   
    22   10   76 1    
    23   11   12 ar   
    24   11   48 1    
    25   12   13 ar   
    26   12   77 1    
    27   13   14 ar   
    28   13   15 1    
    29   14   78 1    
    30   15   16 1    
    31   15   79 1    
    32   15   80 1    
    33   16   17 1    
    34   17   18 1    
    35   17   81 1    
    36   17   82 1    
    37   18   19 1    
    38   18   22 1    
    39   18   83 1    
    40   19   20 am   BACKBONE|DICT|INTERRES
    41   19   21 2    
    42   20   84 1    
    43   20   85 1    
    44   22   23 am   BACKBONE|DICT|INTERRES
    45   22   86 1    
    46   23   24 2    
    47   23   25 1    
    48   25   26 1    
    49   25   27 1    
    50   25   87 1    
    51   26   88 1    
    52   26   89 1    
    53   26   90 1    
    54   27   28 am   BACKBONE|DICT|INTERRES
    55   27   91 1    
    56   28   29 2    
    57   28   30 1    
    58   30   31 1    
    59   30   32 1    
    60   30   92 1    
    61   31   93 1    
    62   31   94 1    
    63   31   95 1    
    64   32   33 am   BACKBONE|DICT|INTERRES
    65   32   96 1    
    66   33   34 2    
    67   33   35 1    
    68   35   36 1    
    69   35   37 1    
    70   35   97 1    
    71   36   98 1    
    72   36   99 1    
    73   36  100 1    
    74   37   38 am   BACKBONE|DICT|INTERRES
    75   37  101 1    
    76   38   39 2    
    77   38   40 1    
    78   40   41 1    
    79   40   42 1    
    80   40  102 1    
    81   41  103 1    
    82   41  104 1    
    83   41  105 1    
    84   42   43 am   BACKBONE|DICT|INTERRES
    85   42  106 1    
    86   43   44 2    
    87   43   45 1    
    88   45   46 1    
    89   45   49 1    
    90   45  107 1    
    91   46   47 1    
    92   46  108 1    
    93   46  109 1    
    94   47   48 1    
    95   48  110 1    
    96   48  111 1    
    97   49   50 am   BACKBONE|DICT|INTERRES
    98   49  112 1    
    99   50   51 2    
   100   50   52 1    
   101   52   53 1    
   102   52   54 1    
   103   52  113 1    
   104   53  114 1    
   105   53  115 1    
   106   53  116 1    
   107   54   55 am   BACKBONE|DICT|INTERRES
   108   54  117 1    
   109   55   56 2    
   110   55   57 1    
   111   57   58 1    
   112   57   59 1    
   113   57  118 1    
   114   58  119 1    
   115   58  120 1    
   116   58  121 1    
   117   59   60 am   BACKBONE|DICT|INTERRES
   118   59  122 1    
   119   60   61 2    
   120   60   62 1    
   121   62   63 1    
   122   62   64 1    
   123   62  123 1    
   124   63  124 1    
   125   63  125 1    
   126   63  126 1    
   127   64   65 am   BACKBONE|DICT|INTERRES
   128   64  127 1    
   129   65   66 2    
@<TRIPOS>SUBSTRUCTURE
     1 UNK         1 GROUP             0       ****    0 ROOT    
