@<TRIPOS>MOLECULE
3R134
127   129    1
SMALL
USER_CHARGES


@<TRIPOS>ATOM
      1 CA         36.9403  -42.9841  -54.6558 C.3       0 UNK        -0.1968 
      2 C          36.4030  -43.5837  -53.3587 C.2       0 UNK         0.4852 
      3 O          36.2340  -42.8507  -52.3853 O.2       0 UNK        -0.5359 
      4 N          36.1201  -44.8892  -53.2849 N.am      1 UNK        -0.4300 
      5 CA         36.2735  -45.9192  -54.3124 C.3       1 UNK         0.0863 
      6 C6         35.2192  -45.8261  -55.4535 C.3       11 UNK        -0.0953 
      7 S7         33.4824  -45.9229  -54.8959 S.3       11 UNK        -0.2369 
      8 C8         32.9558  -44.1881  -55.0486 C.3       11 UNK         0.0226 
      9 C9         31.5482  -43.9816  -54.5084 C.ar      11 UNK        -0.0699 
     10 C10        31.3251  -43.9803  -53.1282 C.ar      11 UNK        -0.0804 
     11 C11        30.0400  -43.7811  -52.6157 C.ar      11 UNK        -0.0871 
     12 C12        28.9749  -43.5667  -53.4949 C.ar      11 UNK        -0.1008 
     13 C13        29.1809  -43.5824  -54.8775 C.ar      11 UNK        -0.0735 
     14 C14        30.4713  -43.7822  -55.3790 C.ar      11 UNK        -0.0945 
     15 C15        28.0056  -43.3775  -55.8215 C.3       11 UNK         0.0169 
     16 S16        26.8860  -44.8111  -55.8086 S.3       11 UNK        -0.2669 
     17 C17        25.4937  -44.1555  -56.7907 C.3       11 UNK        -0.0850 
     18 CA         24.7420  -45.2619  -57.5858 C.3       10 UNK         0.0855 
     19 C          23.4161  -44.7525  -58.2303 C.2       10 UNK         0.5543 
     20 N          22.9730  -45.3094  -59.3511 N.am      10 UNK        -0.7343 
     21 O          22.7588  -43.8636  -57.6939 O.2       10 UNK        -0.5027 
     22 N          25.6238  -46.0187  -58.4935 N.am      10 UNK        -0.4495 
     23 C          26.2543  -45.5290  -59.5708 C.2       10 UNK         0.4903 
     24 O          26.1447  -44.3660  -59.9640 O.2       10 UNK        -0.4860 
     25 CA         27.1588  -46.5185  -60.3320 C.3       9 UNK         0.0227 
     26 CB         27.9248  -45.8644  -61.5019 C.3       9 UNK        -0.1964 
     27 N          28.0793  -47.2326  -59.4405 N.am      9 UNK        -0.4231 
     28 C          29.0083  -46.7148  -58.6240 C.2       9 UNK         0.5014 
     29 O          29.2760  -45.5127  -58.5759 O.2       9 UNK        -0.5270 
     30 CA         29.7762  -47.7047  -57.7137 C.3       8 UNK         0.0284 
     31 CB         30.4865  -46.9729  -56.5632 C.3       8 UNK        -0.1977 
     32 N          28.9463  -48.7605  -57.1227 N.am      8 UNK        -0.4342 
     33 C          28.3588  -49.7828  -57.7590 C.2       8 UNK         0.5039 
     34 O          28.4639  -49.9845  -58.9692 O.2       8 UNK        -0.5547 
     35 CA         27.4592  -50.7031  -56.9177 C.3       7 UNK         0.0281 
     36 CB         28.2891  -51.8422  -56.3042 C.3       7 UNK        -0.1963 
     37 N          26.7480  -49.9913  -55.8523 N.am      7 UNK        -0.4444 
     38 C          25.8344  -49.0242  -56.0347 C.2       7 UNK         0.5104 
     39 O          25.4376  -48.6453  -57.1373 O.2       7 UNK        -0.5100 
     40 CA         25.3364  -48.3279  -54.7627 C.3       6 UNK         0.0396 
     41 CB         24.3669  -49.2271  -53.9730 C.3       6 UNK        -0.1801 
     42 N          26.5006  -47.9596  -53.9641 N.am      6 UNK        -0.4747 
     43 C          26.5635  -47.1371  -52.9160 C.2       6 UNK         0.5012 
     44 O          25.5734  -46.6152  -52.4003 O.2       6 UNK        -0.5003 
     45 CA         27.9837  -46.8654  -52.3562 C.3       5 UNK         0.0782 
     46 C46        27.9488  -45.9467  -51.1049 C.3       11 UNK        -0.0868 
     47 S47        29.6104  -45.5036  -50.4896 S.3       11 UNK        -0.2515 
     48 C48        29.8062  -43.8030  -51.1129 C.3       11 UNK         0.0199 
     49 N          28.7438  -48.1004  -52.1008 N.am      5 UNK        -0.4607 
     50 C          29.2786  -48.9166  -53.0177 C.2       4 UNK         0.5031 
     51 O          29.1166  -48.7855  -54.2349 O.2       4 UNK        -0.5119 
     52 CA         30.0543  -50.1301  -52.4816 C.3       4 UNK         0.0263 
     53 CB         29.0914  -51.2995  -52.2172 C.3       4 UNK        -0.1967 
     54 N          31.0900  -50.5670  -53.4206 N.am      4 UNK        -0.4237 
     55 C          32.2174  -49.8890  -53.6709 C.2       3 UNK         0.4908 
     56 O          32.5404  -48.8570  -53.0795 O.2       3 UNK        -0.5102 
     57 CA         33.1199  -50.4662  -54.7758 C.3       3 UNK         0.0241 
     58 CB         32.5770  -50.1277  -56.1755 C.3       3 UNK        -0.1971 
     59 N          34.4894  -49.9622  -54.6717 N.am      3 UNK        -0.4139 
     60 C          35.4152  -50.4231  -53.8212 C.2       2 UNK         0.5016 
     61 O          35.2386  -51.3838  -53.0700 O.2       2 UNK        -0.5319 
     62 CA         36.7804  -49.7096  -53.8201 C.3       2 UNK         0.0286 
     63 CB         37.7999  -50.5040  -54.6536 C.3       2 UNK        -0.1963 
     64 N          36.7202  -48.3318  -54.3239 N.am      2 UNK        -0.4790 
     65 C          36.2763  -47.2899  -53.6070 C.2       1 UNK         0.5024 
     66 O          35.8977  -47.3803  -52.4352 O.2       1 UNK        -0.4888 
     67 H67        37.6452  -43.6431  -55.1592 H         1 UNK         0.0892 
     68 H68        37.4643  -42.0512  -54.4489 H         1 UNK         0.0892 
     69 H69        36.1207  -42.7588  -55.3369 H         1 UNK         0.0892 
     70 H70        35.7911  -45.2783  -52.4089 H         1 UNK         0.3107 
     71 H71        37.2679  -45.8142  -54.7488 H         1 UNK         0.0773 
     72 H72        35.3778  -46.6252  -56.1792 H         1 UNK         0.0680 
     73 H73        35.3591  -44.9065  -56.0209 H         1 UNK         0.0680 
     74 H74        33.6465  -43.5473  -54.5003 H         1 UNK         0.0650 
     75 H75        33.0145  -43.8868  -56.0956 H         1 UNK         0.0650 
     76 H76        32.1538  -44.1476  -52.4534 H         1 UNK         0.1397 
     77 H77        27.9772  -43.4104  -53.1079 H         1 UNK         0.1363 
     78 H78        30.6335  -43.7950  -56.4484 H         1 UNK         0.1355 
     79 H79        28.3527  -43.2081  -56.8423 H         1 UNK         0.0707 
     80 H80        27.4566  -42.4831  -55.5231 H         1 UNK         0.0707 
     81 H81        25.8538  -43.3822  -57.4710 H         1 UNK         0.1034 
     82 H82        24.8181  -43.6545  -56.0953 H         1 UNK         0.1034 
     83 H83        24.4027  -45.9945  -56.8547 H         1 UNK         0.0482 
     84 H84        22.1104  -44.9846  -59.7588 H         1 UNK         0.3460 
     85 H85        23.4960  -46.0483  -59.7927 H         1 UNK         0.3460 
     86 H86        25.7546  -46.9929  -58.2403 H         1 UNK         0.2989 
     87 H87        26.4968  -47.2751  -60.7555 H         1 UNK         0.0559 
     88 H88        28.5302  -46.5950  -62.0381 H         1 UNK         0.0848 
     89 H89        28.5860  -45.0678  -61.1589 H         1 UNK         0.0848 
     90 H90        27.2346  -45.4246  -62.2227 H         1 UNK         0.0848 
     91 H91        27.9862  -48.2466  -59.4178 H         1 UNK         0.3144 
     92 H92        30.5367  -48.1848  -58.3323 H         1 UNK         0.0727 
     93 H93        31.0120  -47.6583  -55.9009 H         1 UNK         0.0790 
     94 H94        29.7736  -46.4209  -55.9497 H         1 UNK         0.0790 
     95 H95        31.2204  -46.2612  -56.9419 H         1 UNK         0.0790 
     96 H96        28.8415  -48.7122  -56.1126 H         1 UNK         0.3215 
     97 H97        26.7119  -51.1376  -57.5852 H         1 UNK         0.0863 
     98 H98        27.6606  -52.5419  -55.7530 H         1 UNK         0.0808 
     99 H99        28.8013  -52.4119  -57.0811 H         1 UNK         0.0808 
    100 H100       29.0517  -51.4632  -55.6233 H         1 UNK         0.0808 
    101 H101       26.9990  -50.2376  -54.9064 H         1 UNK         0.3118 
    102 H102       24.8163  -47.4137  -55.0517 H         1 UNK         0.0546 
    103 H103       23.5351  -49.5479  -54.6015 H         1 UNK         0.0828 
    104 H104       23.9387  -48.7001  -53.1206 H         1 UNK         0.0828 
    105 H105       24.8584  -50.1247  -53.5964 H         1 UNK         0.0828 
    106 H106       27.3973  -48.3024  -54.3037 H         1 UNK         0.3005 
    107 H107       28.5107  -46.3236  -53.1453 H         1 UNK         0.1257 
    108 H108       27.4124  -46.4386  -50.2914 H         1 UNK         0.0775 
    109 H109       27.3952  -45.0297  -51.3137 H         1 UNK         0.0775 
    110 H110       28.9329  -43.2057  -50.8460 H         1 UNK         0.0840 
    111 H111       30.6536  -43.3392  -50.6056 H         1 UNK         0.0840 
    112 H112       28.9030  -48.3068  -51.1255 H         1 UNK         0.2987 
    113 H113       30.5375  -49.8507  -51.5427 H         1 UNK         0.0785 
    114 H114       28.5821  -51.6211  -53.1262 H         1 UNK         0.0798 
    115 H115       28.3222  -51.0194  -51.4961 H         1 UNK         0.0798 
    116 H116       29.6178  -52.1609  -51.8055 H         1 UNK         0.0798 
    117 H117       30.8880  -51.3936  -53.9627 H         1 UNK         0.3079 
    118 H118       33.1343  -51.5528  -54.6649 H         1 UNK         0.0794 
    119 H119       32.6997  -49.0705  -56.4095 H         1 UNK         0.0786 
    120 H120       31.5158  -50.3643  -56.2660 H         1 UNK         0.0786 
    121 H121       33.0999  -50.6958  -56.9451 H         1 UNK         0.0786 
    122 H122       34.7065  -49.1315  -55.2009 H         1 UNK         0.3032 
    123 H123       37.1312  -49.6891  -52.7853 H         1 UNK         0.1094 
    124 H124       37.5096  -50.5599  -55.7035 H         1 UNK         0.0794 
    125 H125       38.7919  -50.0548  -54.6014 H         1 UNK         0.0794 
    126 H126       37.8909  -51.5274  -54.2864 H         1 UNK         0.0794 
    127 H127       37.0369  -48.1802  -55.2717 H         1 UNK         0.3016 
@<TRIPOS>BOND
     1    1    2 1    
     2    1   67 1    
     3    1   68 1    
     4    1   69 1    
     5    2    3 2    
     6    2    4 am   BACKBONE|DICT|INTERRES
     7    4    5 1    
     8    4   70 1    
     9    5    6 1    
    10    5   65 1    
    11    5   71 1    
    12    6    7 1    
    13    6   72 1    
    14    6   73 1    
    15    7    8 1    
    16    8    9 1    
    17    8   74 1    
    18    8   75 1    
    19    9   10 ar   
    20    9   14 ar   
    21   10   11 ar   
    22   10   76 1    
    23   11   12 ar   
    24   11   48 1    
    25   12   13 ar   
    26   12   77 1    
    27   13   14 ar   
    28   13   15 1    
    29   14   78 1    
    30   15   16 1    
    31   15   79 1    
    32   15   80 1    
    33   16   17 1    
    34   17   18 1    
    35   17   81 1    
    36   17   82 1    
    37   18   19 1    
    38   18   22 1    
    39   18   83 1    
    40   19   20 am   BACKBONE|DICT|INTERRES
    41   19   21 2    
    42   20   84 1    
    43   20   85 1    
    44   22   23 am   BACKBONE|DICT|INTERRES
    45   22   86 1    
    46   23   24 2    
    47   23   25 1    
    48   25   26 1    
    49   25   27 1    
    50   25   87 1    
    51   26   88 1    
    52   26   89 1    
    53   26   90 1    
    54   27   28 am   BACKBONE|DICT|INTERRES
    55   27   91 1    
    56   28   29 2    
    57   28   30 1    
    58   30   31 1    
    59   30   32 1    
    60   30   92 1    
    61   31   93 1    
    62   31   94 1    
    63   31   95 1    
    64   32   33 am   BACKBONE|DICT|INTERRES
    65   32   96 1    
    66   33   34 2    
    67   33   35 1    
    68   35   36 1    
    69   35   37 1    
    70   35   97 1    
    71   36   98 1    
    72   36   99 1    
    73   36  100 1    
    74   37   38 am   BACKBONE|DICT|INTERRES
    75   37  101 1    
    76   38   39 2    
    77   38   40 1    
    78   40   41 1    
    79   40   42 1    
    80   40  102 1    
    81   41  103 1    
    82   41  104 1    
    83   41  105 1    
    84   42   43 am   BACKBONE|DICT|INTERRES
    85   42  106 1    
    86   43   44 2    
    87   43   45 1    
    88   45   46 1    
    89   45   49 1    
    90   45  107 1    
    91   46   47 1    
    92   46  108 1    
    93   46  109 1    
    94   47   48 1    
    95   48  110 1    
    96   48  111 1    
    97   49   50 am   BACKBONE|DICT|INTERRES
    98   49  112 1    
    99   50   51 2    
   100   50   52 1    
   101   52   53 1    
   102   52   54 1    
   103   52  113 1    
   104   53  114 1    
   105   53  115 1    
   106   53  116 1    
   107   54   55 am   BACKBONE|DICT|INTERRES
   108   54  117 1    
   109   55   56 2    
   110   55   57 1    
   111   57   58 1    
   112   57   59 1    
   113   57  118 1    
   114   58  119 1    
   115   58  120 1    
   116   58  121 1    
   117   59   60 am   BACKBONE|DICT|INTERRES
   118   59  122 1    
   119   60   61 2    
   120   60   62 1    
   121   62   63 1    
   122   62   64 1    
   123   62  123 1    
   124   63  124 1    
   125   63  125 1    
   126   63  126 1    
   127   64   65 am   BACKBONE|DICT|INTERRES
   128   64  127 1    
   129   65   66 2    
@<TRIPOS>SUBSTRUCTURE
     1 UNK         1 GROUP             0       ****    0 ROOT    
