@<TRIPOS>MOLECULE
3R134
127   129    1
SMALL
USER_CHARGES


@<TRIPOS>ATOM
      1 CA         33.1164  -46.0174  -47.7761 C.3       0 UNK        -0.1968 
      2 C          33.6778  -46.1954  -49.1786 C.2       0 UNK         0.4852 
      3 O          33.7192  -47.3197  -49.6820 O.2       0 UNK        -0.5359 
      4 N          34.0936  -45.0930  -49.8207 N.am      1 UNK        -0.4300 
      5 CA         34.6833  -45.0608  -51.1679 C.3       1 UNK         0.0863 
      6 C6         35.2505  -43.6650  -51.5248 C.3       11 UNK        -0.0953 
      7 S7         34.0041  -42.3269  -51.5248 S.3       11 UNK        -0.2369 
      8 C8         34.1278  -41.6889  -53.2268 C.3       11 UNK         0.0226 
      9 C9         33.2273  -42.4252  -54.2125 C.ar      11 UNK        -0.0699 
     10 C10        33.7536  -43.3805  -55.0912 C.ar      11 UNK        -0.0804 
     11 C11        32.9440  -43.9737  -56.0686 C.ar      11 UNK        -0.0871 
     12 C12        31.6021  -43.5967  -56.1619 C.ar      11 UNK        -0.1008 
     13 C13        31.0572  -42.6678  -55.2732 C.ar      11 UNK        -0.0735 
     14 C14        31.8724  -42.0883  -54.2971 C.ar      11 UNK        -0.0945 
     15 C15        29.6045  -42.2487  -55.4243 C.3       11 UNK         0.0169 
     16 S16        28.4553  -43.6180  -55.0748 S.3       11 UNK        -0.2669 
     17 C17        26.9826  -43.0348  -55.9878 C.3       11 UNK        -0.0850 
     18 CA         26.6801  -43.8425  -57.2807 C.3       10 UNK         0.0855 
     19 C          27.8106  -43.7639  -58.3448 C.2       10 UNK         0.5543 
     20 N          28.4038  -44.8653  -58.7889 N.am      10 UNK        -0.7343 
     21 O          28.1365  -42.6724  -58.8044 O.2       10 UNK        -0.5027 
     22 N          26.1947  -45.2005  -56.9907 N.am      10 UNK        -0.4495 
     23 C          24.9202  -45.4887  -56.6921 C.2       10 UNK         0.4903 
     24 O          24.0276  -44.6428  -56.6197 O.2       10 UNK        -0.4860 
     25 CA         24.5539  -46.9607  -56.4384 C.3       9 UNK         0.0227 
     26 CB         23.8542  -47.5512  -57.6722 C.3       9 UNK        -0.1964 
     27 N          25.7075  -47.7882  -56.0800 N.am      9 UNK        -0.4231 
     28 C          26.2991  -47.7723  -54.8752 C.2       9 UNK         0.5014 
     29 O          25.8908  -47.0934  -53.9312 O.2       9 UNK        -0.5270 
     30 CA         27.5682  -48.6269  -54.6970 C.3       8 UNK         0.0284 
     31 CB         27.7675  -49.1199  -53.2486 C.3       8 UNK        -0.1977 
     32 N          27.6816  -49.7242  -55.6642 N.am      8 UNK        -0.4342 
     33 C          26.9197  -50.8236  -55.7725 C.2       8 UNK         0.5039 
     34 O          26.0039  -51.1079  -54.9998 O.2       8 UNK        -0.5547 
     35 CA         27.2406  -51.7532  -56.9650 C.3       7 UNK         0.0281 
     36 CB         26.0612  -52.6752  -57.3422 C.3       7 UNK        -0.1963 
     37 N          27.7396  -51.0243  -58.1421 N.am      7 UNK        -0.4444 
     38 C          27.0861  -50.0809  -58.8400 C.2       7 UNK         0.5104 
     39 O          25.9235  -49.7483  -58.6169 O.2       7 UNK        -0.5100 
     40 CA         27.9162  -49.3258  -59.8984 C.3       6 UNK         0.0396 
     41 CB         27.1783  -48.1023  -60.4848 C.3       6 UNK        -0.1801 
     42 N          29.2336  -48.9479  -59.3683 N.am      6 UNK        -0.4747 
     43 C          29.4689  -48.1757  -58.2967 C.2       6 UNK         0.5012 
     44 O          28.5895  -47.5536  -57.6925 O.2       6 UNK        -0.5003 
     45 CA         30.9094  -48.1830  -57.7502 C.3       5 UNK         0.0782 
     46 C46        31.3271  -46.7716  -57.2620 C.3       11 UNK        -0.0868 
     47 S47        33.0595  -46.6996  -56.6857 S.3       11 UNK        -0.2515 
     48 C48        33.5256  -44.9758  -57.0609 C.3       11 UNK         0.0199 
     49 N          31.0215  -49.1862  -56.6841 N.am      5 UNK        -0.4607 
     50 C          30.9506  -50.5184  -56.8271 C.2       4 UNK         0.5031 
     51 O          30.7539  -51.0700  -57.9107 O.2       4 UNK        -0.5119 
     52 CA         31.0980  -51.3791  -55.5578 C.3       4 UNK         0.0263 
     53 CB         31.6563  -52.7841  -55.8512 C.3       4 UNK        -0.1967 
     54 N          31.9446  -50.7068  -54.5758 N.am      4 UNK        -0.4237 
     55 C          31.7107  -50.6351  -53.2592 C.2       3 UNK         0.4908 
     56 O          30.8192  -51.2545  -52.6776 O.2       3 UNK        -0.5102 
     57 CA         32.6266  -49.6908  -52.4554 C.3       3 UNK         0.0241 
     58 CB         34.0709  -49.6574  -52.9985 C.3       3 UNK        -0.1971 
     59 N          32.1410  -48.3085  -52.3162 N.am      3 UNK        -0.4139 
     60 C          31.4641  -47.5491  -53.1983 C.2       2 UNK         0.5016 
     61 O          30.9332  -47.9687  -54.2221 O.2       2 UNK        -0.5319 
     62 CA         31.3788  -46.0384  -52.9206 C.3       2 UNK         0.0286 
     63 CB         30.0038  -45.6711  -52.3419 C.3       2 UNK        -0.1963 
     64 N          32.4296  -45.5315  -52.0368 N.am      2 UNK        -0.4790 
     65 C          33.7498  -45.5857  -52.2777 C.2       1 UNK         0.5024 
     66 O          34.2480  -46.0496  -53.3028 O.2       1 UNK        -0.4888 
     67 H67        33.7042  -46.5936  -47.0620 H         1 UNK         0.0892 
     68 H68        33.1275  -44.9741  -47.4609 H         1 UNK         0.0892 
     69 H69        32.0872  -46.3732  -47.7361 H         1 UNK         0.0892 
     70 H70        34.0167  -44.1942  -49.3651 H         1 UNK         0.3107 
     71 H71        35.5289  -45.7518  -51.1431 H         1 UNK         0.0773 
     72 H72        36.0247  -43.3939  -50.8056 H         1 UNK         0.0680 
     73 H73        35.7574  -43.7032  -52.4907 H         1 UNK         0.0680 
     74 H74        33.8462  -40.6349  -53.2135 H         1 UNK         0.0650 
     75 H75        35.1663  -41.7094  -53.5601 H         1 UNK         0.0650 
     76 H76        34.7994  -43.6478  -55.0271 H         1 UNK         0.1397 
     77 H77        30.9713  -44.0202  -56.9304 H         1 UNK         0.1363 
     78 H78        31.4634  -41.3473  -53.6240 H         1 UNK         0.1355 
     79 H79        29.4599  -41.8931  -56.4453 H         1 UNK         0.0707 
     80 H80        29.3669  -41.4098  -54.7684 H         1 UNK         0.0707 
     81 H81        27.0887  -41.9755  -56.2279 H         1 UNK         0.1034 
     82 H82        26.1270  -43.0850  -55.3129 H         1 UNK         0.1034 
     83 H83        25.8573  -43.3224  -57.7756 H         1 UNK         0.0482 
     84 H84        28.2111  -45.7801  -58.4021 H         1 UNK         0.3460 
     85 H85        29.1074  -44.7674  -59.5021 H         1 UNK         0.3460 
     86 H86        26.8800  -45.9425  -57.0194 H         1 UNK         0.2989 
     87 H87        23.8444  -46.9858  -55.6086 H         1 UNK         0.0559 
     88 H88        22.9384  -47.0041  -57.8999 H         1 UNK         0.0848 
     89 H89        23.5773  -48.5937  -57.5136 H         1 UNK         0.0848 
     90 H90        24.4883  -47.5024  -58.5582 H         1 UNK         0.0848 
     91 H91        26.0838  -48.3849  -56.8068 H         1 UNK         0.3144 
     92 H92        28.3955  -47.9534  -54.9236 H         1 UNK         0.0727 
     93 H93        28.6840  -49.7006  -53.1542 H         1 UNK         0.0790 
     94 H94        26.9372  -49.7400  -52.9108 H         1 UNK         0.0790 
     95 H95        27.8492  -48.2801  -52.5578 H         1 UNK         0.0790 
     96 H96        28.3552  -49.5560  -56.3974 H         1 UNK         0.3215 
     97 H97        28.0603  -52.3928  -56.6339 H         1 UNK         0.0863 
     98 H98        26.3148  -53.3213  -58.1824 H         1 UNK         0.0808 
     99 H99        25.1708  -52.1065  -57.6118 H         1 UNK         0.0808 
    100 H100       25.7897  -53.3229  -56.5077 H         1 UNK         0.0808 
    101 H101       28.7126  -51.1935  -58.3800 H         1 UNK         0.3118 
    102 H102       28.0951  -50.0290  -60.7130 H         1 UNK         0.0546 
    103 H103       26.8953  -47.3840  -59.7153 H         1 UNK         0.0828 
    104 H104       26.2611  -48.4087  -60.9891 H         1 UNK         0.0828 
    105 H105       27.7929  -47.5817  -61.2187 H         1 UNK         0.0828 
    106 H106       30.0151  -49.4588  -59.7587 H         1 UNK         0.3005 
    107 H107       31.5844  -48.4712  -58.5590 H         1 UNK         0.1257 
    108 H108       31.2003  -46.0524  -58.0727 H         1 UNK         0.0775 
    109 H109       30.6832  -46.4350  -56.4466 H         1 UNK         0.0775 
    110 H110       34.6146  -44.9106  -57.0585 H         1 UNK         0.0840 
    111 H111       33.2145  -44.7199  -58.0747 H         1 UNK         0.0840 
    112 H112       31.0925  -48.7941  -55.7425 H         1 UNK         0.2987 
    113 H113       30.0914  -51.4886  -55.1496 H         1 UNK         0.0785 
    114 H114       31.7301  -53.3783  -54.9403 H         1 UNK         0.0798 
    115 H115       32.6485  -52.7351  -56.3012 H         1 UNK         0.0798 
    116 H116       31.0099  -53.3303  -56.5395 H         1 UNK         0.0798 
    117 H117       32.6877  -50.1360  -54.9549 H         1 UNK         0.3079 
    118 H118       32.6696  -50.0999  -51.4448 H         1 UNK         0.0794 
    119 H119       34.1431  -49.1120  -53.9406 H         1 UNK         0.0786 
    120 H120       34.4605  -50.6636  -53.1602 H         1 UNK         0.0786 
    121 H121       34.7386  -49.1657  -52.2904 H         1 UNK         0.0786 
    122 H122       32.4917  -47.8300  -51.4944 H         1 UNK         0.3032 
    123 H123       31.4932  -45.5341  -53.8833 H         1 UNK         0.1094 
    124 H124       29.2028  -46.0136  -52.9992 H         1 UNK         0.0794 
    125 H125       29.8408  -46.1239  -51.3634 H         1 UNK         0.0794 
    126 H126       29.8932  -44.5911  -52.2414 H         1 UNK         0.0794 
    127 H127       32.1299  -45.1154  -51.1676 H         1 UNK         0.3016 
@<TRIPOS>BOND
     1    1    2 1    
     2    1   67 1    
     3    1   68 1    
     4    1   69 1    
     5    2    3 2    
     6    2    4 am   BACKBONE|DICT|INTERRES
     7    4    5 1    
     8    4   70 1    
     9    5    6 1    
    10    5   65 1    
    11    5   71 1    
    12    6    7 1    
    13    6   72 1    
    14    6   73 1    
    15    7    8 1    
    16    8    9 1    
    17    8   74 1    
    18    8   75 1    
    19    9   10 ar   
    20    9   14 ar   
    21   10   11 ar   
    22   10   76 1    
    23   11   12 ar   
    24   11   48 1    
    25   12   13 ar   
    26   12   77 1    
    27   13   14 ar   
    28   13   15 1    
    29   14   78 1    
    30   15   16 1    
    31   15   79 1    
    32   15   80 1    
    33   16   17 1    
    34   17   18 1    
    35   17   81 1    
    36   17   82 1    
    37   18   19 1    
    38   18   22 1    
    39   18   83 1    
    40   19   20 am   BACKBONE|DICT|INTERRES
    41   19   21 2    
    42   20   84 1    
    43   20   85 1    
    44   22   23 am   BACKBONE|DICT|INTERRES
    45   22   86 1    
    46   23   24 2    
    47   23   25 1    
    48   25   26 1    
    49   25   27 1    
    50   25   87 1    
    51   26   88 1    
    52   26   89 1    
    53   26   90 1    
    54   27   28 am   BACKBONE|DICT|INTERRES
    55   27   91 1    
    56   28   29 2    
    57   28   30 1    
    58   30   31 1    
    59   30   32 1    
    60   30   92 1    
    61   31   93 1    
    62   31   94 1    
    63   31   95 1    
    64   32   33 am   BACKBONE|DICT|INTERRES
    65   32   96 1    
    66   33   34 2    
    67   33   35 1    
    68   35   36 1    
    69   35   37 1    
    70   35   97 1    
    71   36   98 1    
    72   36   99 1    
    73   36  100 1    
    74   37   38 am   BACKBONE|DICT|INTERRES
    75   37  101 1    
    76   38   39 2    
    77   38   40 1    
    78   40   41 1    
    79   40   42 1    
    80   40  102 1    
    81   41  103 1    
    82   41  104 1    
    83   41  105 1    
    84   42   43 am   BACKBONE|DICT|INTERRES
    85   42  106 1    
    86   43   44 2    
    87   43   45 1    
    88   45   46 1    
    89   45   49 1    
    90   45  107 1    
    91   46   47 1    
    92   46  108 1    
    93   46  109 1    
    94   47   48 1    
    95   48  110 1    
    96   48  111 1    
    97   49   50 am   BACKBONE|DICT|INTERRES
    98   49  112 1    
    99   50   51 2    
   100   50   52 1    
   101   52   53 1    
   102   52   54 1    
   103   52  113 1    
   104   53  114 1    
   105   53  115 1    
   106   53  116 1    
   107   54   55 am   BACKBONE|DICT|INTERRES
   108   54  117 1    
   109   55   56 2    
   110   55   57 1    
   111   57   58 1    
   112   57   59 1    
   113   57  118 1    
   114   58  119 1    
   115   58  120 1    
   116   58  121 1    
   117   59   60 am   BACKBONE|DICT|INTERRES
   118   59  122 1    
   119   60   61 2    
   120   60   62 1    
   121   62   63 1    
   122   62   64 1    
   123   62  123 1    
   124   63  124 1    
   125   63  125 1    
   126   63  126 1    
   127   64   65 am   BACKBONE|DICT|INTERRES
   128   64  127 1    
   129   65   66 2    
@<TRIPOS>SUBSTRUCTURE
     1 UNK         1 GROUP             0       ****    0 ROOT    
