@<TRIPOS>MOLECULE
3R134
127   129    1
SMALL
USER_CHARGES


@<TRIPOS>ATOM
      1 CA         30.3214  -46.4037  -60.1284 C.3       0 UNK        -0.1968 
      2 C          31.4165  -46.6006  -59.0921 C.2       0 UNK         0.4852 
      3 O          32.5798  -46.7736  -59.4598 O.2       0 UNK        -0.5359 
      4 N          31.0364  -46.5802  -57.8065 N.am      1 UNK        -0.4300 
      5 CA         31.8900  -46.7824  -56.6245 C.3       1 UNK         0.0863 
      6 C6         32.9464  -45.6563  -56.4070 C.3       11 UNK        -0.0953 
      7 S7         32.2810  -43.9607  -56.5138 S.3       11 UNK        -0.2369 
      8 C8         33.0260  -43.1197  -55.0706 C.3       11 UNK         0.0226 
      9 C9         32.0178  -42.8781  -53.9534 C.ar      11 UNK        -0.0699 
     10 C10        32.3251  -43.1864  -52.6237 C.ar      11 UNK        -0.0804 
     11 C11        31.3938  -42.9436  -51.6060 C.ar      11 UNK        -0.0871 
     12 C12        30.1354  -42.4251  -51.9313 C.ar      11 UNK        -0.1008 
     13 C13        29.8223  -42.1069  -53.2550 C.ar      11 UNK        -0.0735 
     14 C14        30.7810  -42.3011  -54.2493 C.ar      11 UNK        -0.0945 
     15 C15        28.4602  -41.5351  -53.6184 C.3       11 UNK         0.0169 
     16 S16        27.2253  -42.8374  -53.9377 S.3       11 UNK        -0.2669 
     17 C17        27.8404  -43.6514  -55.4555 C.3       11 UNK        -0.0850 
     18 CA         27.1531  -43.1519  -56.7657 C.3       10 UNK         0.0855 
     19 C          28.0628  -42.2061  -57.6111 C.2       10 UNK         0.5543 
     20 N          28.0916  -42.3200  -58.9336 N.am      10 UNK        -0.7343 
     21 O          28.7269  -41.3288  -57.0678 O.2       10 UNK        -0.5027 
     22 N          26.5249  -44.2415  -57.5374 N.am      10 UNK        -0.4495 
     23 C          27.1380  -45.3482  -57.9729 C.2       10 UNK         0.4903 
     24 O          28.3114  -45.6355  -57.7277 O.2       10 UNK        -0.4860 
     25 CA         26.3029  -46.2773  -58.8559 C.3       9 UNK         0.0227 
     26 CB         26.3810  -45.8403  -60.3320 C.3       9 UNK        -0.1964 
     27 N          26.7989  -47.6392  -58.6912 N.am      9 UNK        -0.4231 
     28 C          26.1684  -48.7580  -59.0570 C.2       9 UNK         0.5014 
     29 O          25.0755  -48.7770  -59.6251 O.2       9 UNK        -0.5270 
     30 CA         26.8573  -50.0892  -58.7149 C.3       8 UNK         0.0284 
     31 CB         28.1048  -50.3226  -59.5891 C.3       8 UNK        -0.1977 
     32 N          27.1353  -50.2499  -57.2802 N.am      8 UNK        -0.4342 
     33 C          27.9954  -49.5707  -56.5098 C.2       8 UNK         0.5039 
     34 O          28.7965  -48.7296  -56.9292 O.2       8 UNK        -0.5547 
     35 CA         27.9562  -49.8975  -55.0120 C.3       7 UNK         0.0281 
     36 CB         29.1900  -50.7049  -54.5908 C.3       7 UNK        -0.1963 
     37 N          27.8901  -48.6657  -54.2286 N.am      7 UNK        -0.4444 
     38 C          26.7554  -48.0042  -53.9607 C.2       7 UNK         0.5104 
     39 O          25.6499  -48.3870  -54.3472 O.2       7 UNK        -0.5100 
     40 CA         26.8440  -46.6938  -53.1464 C.3       6 UNK         0.0396 
     41 CB         25.7891  -46.6410  -52.0206 C.3       6 UNK        -0.1801 
     42 N          28.1865  -46.3648  -52.6377 N.am      6 UNK        -0.4747 
     43 C          28.8781  -47.0297  -51.7004 C.2       6 UNK         0.5012 
     44 O          28.4492  -48.0166  -51.0979 O.2       6 UNK        -0.5003 
     45 CA         30.2973  -46.5166  -51.3886 C.3       5 UNK         0.0782 
     46 C46        30.2926  -45.6250  -50.1245 C.3       11 UNK        -0.0868 
     47 S47        31.9557  -44.9653  -49.7660 S.3       11 UNK        -0.2515 
     48 C48        31.7574  -43.1982  -50.1488 C.3       11 UNK         0.0199 
     49 N          31.2083  -47.6539  -51.2406 N.am      5 UNK        -0.4607 
     50 C          31.5966  -48.4542  -52.2363 C.2       4 UNK         0.5031 
     51 O          31.3048  -48.2717  -53.4217 O.2       4 UNK        -0.5119 
     52 CA         32.4305  -49.6716  -51.8252 C.3       4 UNK         0.0263 
     53 CB         31.5435  -50.7562  -51.1811 C.3       4 UNK        -0.1967 
     54 N          33.1007  -50.1959  -53.0083 N.am      4 UNK        -0.4237 
     55 C          34.1187  -51.0631  -53.0235 C.2       3 UNK         0.4908 
     56 O          34.6171  -51.5394  -52.0021 O.2       3 UNK        -0.5102 
     57 CA         34.7174  -51.4407  -54.3936 C.3       3 UNK         0.0241 
     58 CB         34.9949  -52.9548  -54.5133 C.3       3 UNK        -0.1971 
     59 N          33.9588  -50.9417  -55.5492 N.am      3 UNK        -0.4139 
     60 C          32.7508  -51.3225  -55.9867 C.2       2 UNK         0.5016 
     61 O          32.0592  -52.1867  -55.4468 O.2       2 UNK        -0.5319 
     62 CA         32.2330  -50.5865  -57.2379 C.3       2 UNK         0.0286 
     63 CB         31.1268  -51.3690  -57.9645 C.3       2 UNK        -0.1963 
     64 N          31.7606  -49.2237  -56.9605 N.am      2 UNK        -0.4790 
     65 C          32.5502  -48.1823  -56.6538 C.2       1 UNK         0.5024 
     66 O          33.7645  -48.2952  -56.4648 O.2       1 UNK        -0.4888 
     67 H67        29.4837  -47.0718  -59.9309 H         1 UNK         0.0892 
     68 H68        29.9592  -45.3760  -60.1042 H         1 UNK         0.0892 
     69 H69        30.6914  -46.6135  -61.1317 H         1 UNK         0.0892 
     70 H70        30.0531  -46.4099  -57.6043 H         1 UNK         0.3107 
     71 H71        31.2178  -46.7780  -55.7651 H         1 UNK         0.0773 
     72 H72        33.4240  -45.7932  -55.4355 H         1 UNK         0.0680 
     73 H73        33.7432  -45.7290  -57.1495 H         1 UNK         0.0680 
     74 H74        33.4075  -42.1522  -55.3992 H         1 UNK         0.0650 
     75 H75        33.8899  -43.6782  -54.7083 H         1 UNK         0.0650 
     76 H76        33.2930  -43.6000  -52.3745 H         1 UNK         0.1397 
     77 H77        29.4036  -42.2498  -51.1543 H         1 UNK         0.1363 
     78 H78        30.5536  -42.0248  -55.2697 H         1 UNK         0.1355 
     79 H79        28.0995  -40.9067  -52.8028 H         1 UNK         0.0707 
     80 H80        28.5372  -40.8809  -54.4871 H         1 UNK         0.0707 
     81 H81        28.9245  -43.6000  -55.5278 H         1 UNK         0.1034 
     82 H82        27.6547  -44.7133  -55.3167 H         1 UNK         0.1034 
     83 H83        26.3104  -42.5196  -56.4846 H         1 UNK         0.0482 
     84 H84        27.5428  -43.0232  -59.3989 H         1 UNK         0.3460 
     85 H85        28.6729  -41.6939  -59.4678 H         1 UNK         0.3460 
     86 H86        25.5624  -44.0834  -57.8011 H         1 UNK         0.2989 
     87 H87        25.2653  -46.2425  -58.5174 H         1 UNK         0.0559 
     88 H88        26.0216  -44.8186  -60.4594 H         1 UNK         0.0848 
     89 H89        25.7667  -46.4740  -60.9714 H         1 UNK         0.0848 
     90 H90        27.4023  -45.8773  -60.7112 H         1 UNK         0.0848 
     91 H91        27.6661  -47.7259  -58.1614 H         1 UNK         0.3144 
     92 H92        26.1449  -50.8780  -58.9624 H         1 UNK         0.0727 
     93 H93        28.5194  -51.3162  -59.4218 H         1 UNK         0.0790 
     94 H94        28.8886  -49.5898  -59.3979 H         1 UNK         0.0790 
     95 H95        27.8534  -50.2538  -60.6482 H         1 UNK         0.0790 
     96 H96        26.5216  -50.9041  -56.8134 H         1 UNK         0.3215 
     97 H97        27.0731  -50.5026  -54.7946 H         1 UNK         0.0863 
     98 H98        29.1639  -50.9344  -53.5265 H         1 UNK         0.0808 
     99 H99        30.1151  -50.1680  -54.7967 H         1 UNK         0.0808 
    100 H100       29.2393  -51.6546  -55.1245 H         1 UNK         0.0808 
    101 H101       28.7706  -48.2727  -53.9266 H         1 UNK         0.3118 
    102 H102       26.5797  -45.9020  -53.8438 H         1 UNK         0.0546 
    103 H103       24.7799  -46.7077  -52.4286 H         1 UNK         0.0828 
    104 H104       25.8486  -45.7054  -51.4647 H         1 UNK         0.0828 
    105 H105       25.9023  -47.4624  -51.3130 H         1 UNK         0.0828 
    106 H106       28.6180  -45.5577  -53.0677 H         1 UNK         0.3005 
    107 H107       30.6456  -45.9181  -52.2345 H         1 UNK         0.1257 
    108 H108       29.9575  -46.1922  -49.2538 H         1 UNK         0.0775 
    109 H109       29.5873  -44.7993  -50.2350 H         1 UNK         0.0775 
    110 H110       31.0090  -42.7715  -49.4789 H         1 UNK         0.0840 
    111 H111       32.6923  -42.6840  -49.9215 H         1 UNK         0.0840 
    112 H112       31.4776  -47.8789  -50.2945 H         1 UNK         0.2987 
    113 H113       33.1872  -49.3421  -51.1101 H         1 UNK         0.0785 
    114 H114       32.1395  -51.5845  -50.7983 H         1 UNK         0.0798 
    115 H115       30.8290  -51.1651  -51.8948 H         1 UNK         0.0798 
    116 H116       30.9739  -50.3579  -50.3404 H         1 UNK         0.0798 
    117 H117       32.7522  -49.8166  -53.8802 H         1 UNK         0.3079 
    118 H118       35.6811  -50.9314  -54.4386 H         1 UNK         0.0794 
    119 H119       35.6949  -53.2864  -53.7455 H         1 UNK         0.0786 
    120 H120       35.4353  -53.2031  -55.4789 H         1 UNK         0.0786 
    121 H121       34.0857  -53.5451  -54.3960 H         1 UNK         0.0786 
    122 H122       34.3626  -50.1326  -56.0133 H         1 UNK         0.3032 
    123 H123       33.0743  -50.5138  -57.9314 H         1 UNK         0.1094 
    124 H124       30.9000  -50.9149  -58.9283 H         1 UNK         0.0794 
    125 H125       31.4364  -52.3966  -58.1597 H         1 UNK         0.0794 
    126 H126       30.2070  -51.4112  -57.3823 H         1 UNK         0.0794 
    127 H127       30.7632  -49.0512  -57.0645 H         1 UNK         0.3016 
@<TRIPOS>BOND
     1    1    2 1    
     2    1   67 1    
     3    1   68 1    
     4    1   69 1    
     5    2    3 2    
     6    2    4 am   BACKBONE|DICT|INTERRES
     7    4    5 1    
     8    4   70 1    
     9    5    6 1    
    10    5   65 1    
    11    5   71 1    
    12    6    7 1    
    13    6   72 1    
    14    6   73 1    
    15    7    8 1    
    16    8    9 1    
    17    8   74 1    
    18    8   75 1    
    19    9   10 ar   
    20    9   14 ar   
    21   10   11 ar   
    22   10   76 1    
    23   11   12 ar   
    24   11   48 1    
    25   12   13 ar   
    26   12   77 1    
    27   13   14 ar   
    28   13   15 1    
    29   14   78 1    
    30   15   16 1    
    31   15   79 1    
    32   15   80 1    
    33   16   17 1    
    34   17   18 1    
    35   17   81 1    
    36   17   82 1    
    37   18   19 1    
    38   18   22 1    
    39   18   83 1    
    40   19   20 am   BACKBONE|DICT|INTERRES
    41   19   21 2    
    42   20   84 1    
    43   20   85 1    
    44   22   23 am   BACKBONE|DICT|INTERRES
    45   22   86 1    
    46   23   24 2    
    47   23   25 1    
    48   25   26 1    
    49   25   27 1    
    50   25   87 1    
    51   26   88 1    
    52   26   89 1    
    53   26   90 1    
    54   27   28 am   BACKBONE|DICT|INTERRES
    55   27   91 1    
    56   28   29 2    
    57   28   30 1    
    58   30   31 1    
    59   30   32 1    
    60   30   92 1    
    61   31   93 1    
    62   31   94 1    
    63   31   95 1    
    64   32   33 am   BACKBONE|DICT|INTERRES
    65   32   96 1    
    66   33   34 2    
    67   33   35 1    
    68   35   36 1    
    69   35   37 1    
    70   35   97 1    
    71   36   98 1    
    72   36   99 1    
    73   36  100 1    
    74   37   38 am   BACKBONE|DICT|INTERRES
    75   37  101 1    
    76   38   39 2    
    77   38   40 1    
    78   40   41 1    
    79   40   42 1    
    80   40  102 1    
    81   41  103 1    
    82   41  104 1    
    83   41  105 1    
    84   42   43 am   BACKBONE|DICT|INTERRES
    85   42  106 1    
    86   43   44 2    
    87   43   45 1    
    88   45   46 1    
    89   45   49 1    
    90   45  107 1    
    91   46   47 1    
    92   46  108 1    
    93   46  109 1    
    94   47   48 1    
    95   48  110 1    
    96   48  111 1    
    97   49   50 am   BACKBONE|DICT|INTERRES
    98   49  112 1    
    99   50   51 2    
   100   50   52 1    
   101   52   53 1    
   102   52   54 1    
   103   52  113 1    
   104   53  114 1    
   105   53  115 1    
   106   53  116 1    
   107   54   55 am   BACKBONE|DICT|INTERRES
   108   54  117 1    
   109   55   56 2    
   110   55   57 1    
   111   57   58 1    
   112   57   59 1    
   113   57  118 1    
   114   58  119 1    
   115   58  120 1    
   116   58  121 1    
   117   59   60 am   BACKBONE|DICT|INTERRES
   118   59  122 1    
   119   60   61 2    
   120   60   62 1    
   121   62   63 1    
   122   62   64 1    
   123   62  123 1    
   124   63  124 1    
   125   63  125 1    
   126   63  126 1    
   127   64   65 am   BACKBONE|DICT|INTERRES
   128   64  127 1    
   129   65   66 2    
@<TRIPOS>SUBSTRUCTURE
     1 UNK         1 GROUP             0       ****    0 ROOT    
