@<TRIPOS>MOLECULE
3R134
127   129    1
SMALL
USER_CHARGES


@<TRIPOS>ATOM
      1 CA         28.6493  -45.7475  -51.4926 C.3       0 UNK        -0.1968 
      2 C          30.0956  -45.6637  -51.9574 C.2       0 UNK         0.4852 
      3 O          30.4336  -46.2540  -52.9801 O.2       0 UNK        -0.5359 
      4 N          30.9436  -44.9437  -51.2089 N.am      1 UNK        -0.4300 
      5 CA         32.3762  -44.6910  -51.4387 C.3       1 UNK         0.0863 
      6 C6         32.7137  -44.0413  -52.8076 C.3       11 UNK        -0.0953 
      7 S7         31.9576  -42.3956  -53.0230 S.3       11 UNK        -0.2369 
      8 C8         32.9547  -41.7276  -54.3957 C.3       11 UNK         0.0226 
      9 C9         32.6233  -42.4182  -55.7105 C.ar      11 UNK        -0.0699 
     10 C10        33.3144  -43.5705  -56.0949 C.ar      11 UNK        -0.0804 
     11 C11        32.9595  -44.2600  -57.2594 C.ar      11 UNK        -0.0871 
     12 C12        31.9344  -43.7562  -58.0658 C.ar      11 UNK        -0.1008 
     13 C13        31.2592  -42.5850  -57.7106 C.ar      11 UNK        -0.0735 
     14 C14        31.6089  -41.9190  -56.5320 C.ar      11 UNK        -0.0945 
     15 C15        30.1495  -42.0476  -58.6019 C.3       11 UNK         0.0169 
     16 S16        28.5531  -42.8436  -58.2431 S.3       11 UNK        -0.2669 
     17 C17        28.0947  -42.0096  -56.6819 C.3       11 UNK        -0.0850 
     18 CA         26.7708  -42.5143  -56.0539 C.3       10 UNK         0.0855 
     19 C          25.5199  -42.0728  -56.8658 C.2       10 UNK         0.5543 
     20 N          25.1014  -40.8228  -56.7176 N.am      10 UNK        -0.7343 
     21 O          24.9461  -42.8306  -57.6452 O.2       10 UNK        -0.5027 
     22 N          26.8302  -43.9574  -55.7938 N.am      10 UNK        -0.4495 
     23 C          26.0123  -44.6264  -54.9743 C.2       10 UNK         0.4903 
     24 O          25.1374  -44.0900  -54.2918 O.2       10 UNK        -0.4860 
     25 CA         26.2434  -46.1469  -54.8823 C.3       9 UNK         0.0227 
     26 CB         25.0981  -46.8881  -54.1602 C.3       9 UNK        -0.1964 
     27 N          26.5467  -46.7639  -56.1804 N.am      9 UNK        -0.4231 
     28 C          25.7540  -46.8261  -57.2638 C.2       9 UNK         0.5014 
     29 O          24.6057  -46.3854  -57.3136 O.2       9 UNK        -0.5270 
     30 CA         26.3427  -47.5215  -58.5017 C.3       8 UNK         0.0284 
     31 CB         27.3294  -46.5909  -59.2287 C.3       8 UNK        -0.1977 
     32 N          27.0218  -48.7600  -58.1183 N.am      8 UNK        -0.4342 
     33 C          26.4607  -49.9779  -58.1275 C.2       8 UNK         0.5039 
     34 O          25.3539  -50.2217  -58.6097 O.2       8 UNK        -0.5547 
     35 CA         27.2571  -51.1188  -57.4614 C.3       7 UNK         0.0281 
     36 CB         28.1851  -51.7982  -58.4803 C.3       7 UNK        -0.1963 
     37 N          28.0442  -50.6566  -56.3146 N.am      7 UNK        -0.4444 
     38 C          27.5132  -50.1708  -55.1819 C.2       7 UNK         0.5104 
     39 O          26.3162  -50.2558  -54.9088 O.2       7 UNK        -0.5100 
     40 CA         28.4470  -49.4298  -54.2030 C.3       6 UNK         0.0396 
     41 CB         28.6121  -50.2279  -52.9005 C.3       6 UNK        -0.1801 
     42 N          29.7727  -49.0990  -54.7359 N.am      6 UNK        -0.4747 
     43 C          30.0455  -48.3311  -55.8011 C.2       6 UNK         0.5012 
     44 O          29.1762  -47.7763  -56.4754 O.2       6 UNK        -0.5003 
     45 CA         31.5214  -48.2318  -56.2384 C.3       5 UNK         0.0782 
     46 C46        32.1871  -46.9644  -55.6615 C.3       11 UNK        -0.0868 
     47 S47        33.8937  -46.7196  -56.2628 S.3       11 UNK        -0.2515 
     48 C48        33.6624  -45.5564  -57.6517 C.3       11 UNK         0.0199 
     49 N          32.2774  -49.4441  -55.9068 N.am      5 UNK        -0.4607 
     50 C          32.1182  -50.6370  -56.4928 C.2       4 UNK         0.5031 
     51 O          31.2928  -50.8582  -57.3784 O.2       4 UNK        -0.5119 
     52 CA         33.0266  -51.7725  -55.9931 C.3       4 UNK         0.0263 
     53 CB         34.4100  -51.6890  -56.6584 C.3       4 UNK        -0.1967 
     54 N          33.1801  -51.7524  -54.5358 N.am      4 UNK        -0.4237 
     55 C          32.2357  -52.1641  -53.6778 C.2       3 UNK         0.4908 
     56 O          31.1776  -52.6888  -54.0254 O.2       3 UNK        -0.5102 
     57 CA         32.5043  -51.9395  -52.1772 C.3       3 UNK         0.0241 
     58 CB         33.2376  -53.1491  -51.5750 C.3       3 UNK        -0.1971 
     59 N          33.2479  -50.7105  -51.8657 N.am      3 UNK        -0.4139 
     60 C          32.8328  -49.4727  -52.1677 C.2       2 UNK         0.5016 
     61 O          31.8061  -49.2365  -52.8032 O.2       2 UNK        -0.5319 
     62 CA         33.7270  -48.3097  -51.7276 C.3       2 UNK         0.0286 
     63 CB         34.9817  -48.2197  -52.6182 C.3       2 UNK        -0.1963 
     64 N          32.9669  -47.0616  -51.8093 N.am      2 UNK        -0.4790 
     65 C          33.2706  -45.9224  -51.1795 C.2       1 UNK         0.5024 
     66 O          34.2281  -45.8123  -50.4119 O.2       1 UNK        -0.4888 
     67 H67        28.3086  -46.7826  -51.5139 H         1 UNK         0.0892 
     68 H68        28.5246  -45.3708  -50.4777 H         1 UNK         0.0892 
     69 H69        28.0104  -45.1640  -52.1547 H         1 UNK         0.0892 
     70 H70        30.5820  -44.5090  -50.3715 H         1 UNK         0.3107 
     71 H71        32.6537  -43.9659  -50.6715 H         1 UNK         0.0773 
     72 H72        32.3996  -44.6815  -53.6324 H         1 UNK         0.0680 
     73 H73        33.7945  -43.9248  -52.9088 H         1 UNK         0.0680 
     74 H74        34.0166  -41.8282  -54.1662 H         1 UNK         0.0650 
     75 H75        32.7621  -40.6571  -54.4806 H         1 UNK         0.0650 
     76 H76        34.1043  -43.9546  -55.4646 H         1 UNK         0.1397 
     77 H77        31.6516  -44.2786  -58.9697 H         1 UNK         0.1363 
     78 H78        31.0790  -41.0217  -56.2432 H         1 UNK         0.1355 
     79 H79        30.4026  -42.2261  -59.6481 H         1 UNK         0.0707 
     80 H80        30.0562  -40.9658  -58.4934 H         1 UNK         0.0707 
     81 H81        28.8986  -42.1645  -55.9617 H         1 UNK         0.1034 
     82 H82        28.0542  -40.9321  -56.8519 H         1 UNK         0.1034 
     83 H83        26.6856  -42.0336  -55.0768 H         1 UNK         0.0482 
     84 H84        24.2998  -40.5105  -57.2431 H         1 UNK         0.3460 
     85 H85        25.5625  -40.1872  -56.0852 H         1 UNK         0.3460 
     86 H86        27.4944  -44.4732  -56.3517 H         1 UNK         0.2989 
     87 H87        27.1431  -46.2709  -54.2787 H         1 UNK         0.0559 
     88 H88        24.9656  -46.5092  -53.1461 H         1 UNK         0.0848 
     89 H89        25.3008  -47.9548  -54.0789 H         1 UNK         0.0848 
     90 H90        24.1464  -46.7668  -54.6782 H         1 UNK         0.0848 
     91 H91        27.4931  -47.1293  -56.2718 H         1 UNK         0.3144 
     92 H92        25.5224  -47.7436  -59.1878 H         1 UNK         0.0727 
     93 H93        28.1861  -46.3310  -58.6057 H         1 UNK         0.0790 
     94 H94        26.8435  -45.6571  -59.5157 H         1 UNK         0.0790 
     95 H95        27.7083  -47.0527  -60.1405 H         1 UNK         0.0790 
     96 H96        27.9252  -48.6489  -57.6684 H         1 UNK         0.3215 
     97 H97        26.5399  -51.8598  -57.1017 H         1 UNK         0.0863 
     98 H98        28.7206  -52.6362  -58.0335 H         1 UNK         0.0808 
     99 H99        28.9254  -51.1034  -58.8795 H         1 UNK         0.0808 
    100 H100       27.6162  -52.1894  -59.3249 H         1 UNK         0.0808 
    101 H101       29.0450  -50.5835  -56.4445 H         1 UNK         0.3118 
    102 H102       27.9605  -48.4862  -53.9539 H         1 UNK         0.0546 
    103 H103       29.1274  -51.1731  -53.0716 H         1 UNK         0.0828 
    104 H104       27.6437  -50.4590  -52.4550 H         1 UNK         0.0828 
    105 H105       29.1802  -49.6641  -52.1605 H         1 UNK         0.0828 
    106 H106       30.5646  -49.4083  -54.1750 H         1 UNK         0.3005 
    107 H107       31.5122  -48.1381  -57.3267 H         1 UNK         0.1257 
    108 H108       31.5844  -46.0789  -55.8700 H         1 UNK         0.0775 
    109 H109       32.2429  -47.0382  -54.5763 H         1 UNK         0.0775 
    110 H110       34.6391  -45.3119  -58.0708 H         1 UNK         0.0840 
    111 H111       33.1094  -46.0708  -58.4392 H         1 UNK         0.0840 
    112 H112       32.9527  -49.3504  -55.1643 H         1 UNK         0.2987 
    113 H113       32.5670  -52.7199  -56.2839 H         1 UNK         0.0785 
    114 H114       34.3210  -51.7207  -57.7452 H         1 UNK         0.0798 
    115 H115       35.0431  -52.5258  -56.3625 H         1 UNK         0.0798 
    116 H116       34.9311  -50.7657  -56.4016 H         1 UNK         0.0798 
    117 H117       34.0297  -51.3546  -54.1636 H         1 UNK         0.3079 
    118 H118       31.5304  -51.8571  -51.6895 H         1 UNK         0.0794 
    119 H119       33.3327  -53.0579  -50.4928 H         1 UNK         0.0786 
    120 H120       34.2385  -53.2649  -51.9927 H         1 UNK         0.0786 
    121 H121       32.6931  -54.0737  -51.7726 H         1 UNK         0.0786 
    122 H122       34.1104  -50.8234  -51.3521 H         1 UNK         0.3032 
    123 H123       34.0204  -48.4805  -50.6893 H         1 UNK         0.1094 
    124 H124       34.7208  -48.0466  -53.6623 H         1 UNK         0.0794 
    125 H125       35.6384  -47.4090  -52.3025 H         1 UNK         0.0794 
    126 H126       35.5679  -49.1382  -52.5748 H         1 UNK         0.0794 
    127 H127       32.1192  -47.1016  -52.3750 H         1 UNK         0.3016 
@<TRIPOS>BOND
     1    1    2 1    
     2    1   67 1    
     3    1   68 1    
     4    1   69 1    
     5    2    3 2    
     6    2    4 am   BACKBONE|DICT|INTERRES
     7    4    5 1    
     8    4   70 1    
     9    5    6 1    
    10    5   65 1    
    11    5   71 1    
    12    6    7 1    
    13    6   72 1    
    14    6   73 1    
    15    7    8 1    
    16    8    9 1    
    17    8   74 1    
    18    8   75 1    
    19    9   10 ar   
    20    9   14 ar   
    21   10   11 ar   
    22   10   76 1    
    23   11   12 ar   
    24   11   48 1    
    25   12   13 ar   
    26   12   77 1    
    27   13   14 ar   
    28   13   15 1    
    29   14   78 1    
    30   15   16 1    
    31   15   79 1    
    32   15   80 1    
    33   16   17 1    
    34   17   18 1    
    35   17   81 1    
    36   17   82 1    
    37   18   19 1    
    38   18   22 1    
    39   18   83 1    
    40   19   20 am   BACKBONE|DICT|INTERRES
    41   19   21 2    
    42   20   84 1    
    43   20   85 1    
    44   22   23 am   BACKBONE|DICT|INTERRES
    45   22   86 1    
    46   23   24 2    
    47   23   25 1    
    48   25   26 1    
    49   25   27 1    
    50   25   87 1    
    51   26   88 1    
    52   26   89 1    
    53   26   90 1    
    54   27   28 am   BACKBONE|DICT|INTERRES
    55   27   91 1    
    56   28   29 2    
    57   28   30 1    
    58   30   31 1    
    59   30   32 1    
    60   30   92 1    
    61   31   93 1    
    62   31   94 1    
    63   31   95 1    
    64   32   33 am   BACKBONE|DICT|INTERRES
    65   32   96 1    
    66   33   34 2    
    67   33   35 1    
    68   35   36 1    
    69   35   37 1    
    70   35   97 1    
    71   36   98 1    
    72   36   99 1    
    73   36  100 1    
    74   37   38 am   BACKBONE|DICT|INTERRES
    75   37  101 1    
    76   38   39 2    
    77   38   40 1    
    78   40   41 1    
    79   40   42 1    
    80   40  102 1    
    81   41  103 1    
    82   41  104 1    
    83   41  105 1    
    84   42   43 am   BACKBONE|DICT|INTERRES
    85   42  106 1    
    86   43   44 2    
    87   43   45 1    
    88   45   46 1    
    89   45   49 1    
    90   45  107 1    
    91   46   47 1    
    92   46  108 1    
    93   46  109 1    
    94   47   48 1    
    95   48  110 1    
    96   48  111 1    
    97   49   50 am   BACKBONE|DICT|INTERRES
    98   49  112 1    
    99   50   51 2    
   100   50   52 1    
   101   52   53 1    
   102   52   54 1    
   103   52  113 1    
   104   53  114 1    
   105   53  115 1    
   106   53  116 1    
   107   54   55 am   BACKBONE|DICT|INTERRES
   108   54  117 1    
   109   55   56 2    
   110   55   57 1    
   111   57   58 1    
   112   57   59 1    
   113   57  118 1    
   114   58  119 1    
   115   58  120 1    
   116   58  121 1    
   117   59   60 am   BACKBONE|DICT|INTERRES
   118   59  122 1    
   119   60   61 2    
   120   60   62 1    
   121   62   63 1    
   122   62   64 1    
   123   62  123 1    
   124   63  124 1    
   125   63  125 1    
   126   63  126 1    
   127   64   65 am   BACKBONE|DICT|INTERRES
   128   64  127 1    
   129   65   66 2    
@<TRIPOS>SUBSTRUCTURE
     1 UNK         1 GROUP             0       ****    0 ROOT    
