@<TRIPOS>MOLECULE
3R134
127   129    1
SMALL
USER_CHARGES


@<TRIPOS>ATOM
      1 CA         35.1169  -46.4724  -57.5266 C.3       0 UNK        -0.1968 
      2 C          34.6200  -46.3926  -56.0918 C.2       0 UNK         0.4852 
      3 O          33.8421  -47.2509  -55.6702 O.2       0 UNK        -0.5359 
      4 N          35.0701  -45.3784  -55.3374 N.am      1 UNK        -0.4300 
      5 CA         34.7080  -45.0870  -53.9413 C.3       1 UNK         0.0863 
      6 C6         35.0560  -43.6233  -53.5529 C.3       11 UNK        -0.0953 
      7 S7         34.1731  -42.3728  -54.5531 S.3       11 UNK        -0.2369 
      8 C8         33.1446  -41.5170  -53.3090 C.3       11 UNK         0.0226 
      9 C9         31.7793  -42.1719  -53.1441 C.ar      11 UNK        -0.0699 
     10 C10        31.6683  -43.4143  -52.5154 C.ar      11 UNK        -0.0804 
     11 C11        30.4307  -44.0547  -52.4261 C.ar      11 UNK        -0.0871 
     12 C12        29.2837  -43.4059  -52.8866 C.ar      11 UNK        -0.1008 
     13 C13        29.3731  -42.1568  -53.5085 C.ar      11 UNK        -0.0735 
     14 C14        30.6269  -41.5473  -53.6371 C.ar      11 UNK        -0.0945 
     15 C15        28.1236  -41.4617  -54.0446 C.3       11 UNK         0.0169 
     16 S16        26.9713  -42.5877  -54.9075 S.3       11 UNK        -0.2669 
     17 C17        27.9659  -43.0958  -56.3510 C.3       11 UNK        -0.0850 
     18 CA         27.0731  -43.5843  -57.5237 C.3       10 UNK         0.0855 
     19 C          27.8628  -43.7035  -58.8620 C.2       10 UNK         0.5543 
     20 N          27.6480  -44.7258  -59.6818 N.am      10 UNK        -0.7343 
     21 O          28.6793  -42.8414  -59.1767 O.2       10 UNK        -0.5027 
     22 N          26.3414  -44.8118  -57.1664 N.am      10 UNK        -0.4495 
     23 C          25.0821  -45.0900  -57.5197 C.2       10 UNK         0.4903 
     24 O          24.3456  -44.3057  -58.1209 O.2       10 UNK        -0.4860 
     25 CA         24.5869  -46.5069  -57.1658 C.3       9 UNK         0.0227 
     26 CB         23.1617  -46.7959  -57.6818 C.3       9 UNK        -0.1964 
     27 N          25.5162  -47.5537  -57.6109 N.am      9 UNK        -0.4231 
     28 C          25.9702  -47.7711  -58.8558 C.2       9 UNK         0.5014 
     29 O          25.6425  -47.0940  -59.8309 O.2       9 UNK        -0.5270 
     30 CA         26.9982  -48.9005  -59.0609 C.3       8 UNK         0.0284 
     31 CB         28.3717  -48.3077  -59.4187 C.3       8 UNK        -0.1977 
     32 N          27.1546  -49.7805  -57.9011 N.am      8 UNK        -0.4342 
     33 C          26.2784  -50.7161  -57.5125 C.2       8 UNK         0.5039 
     34 O          25.2457  -50.9880  -58.1255 O.2       8 UNK        -0.5547 
     35 CA         26.5926  -51.4397  -56.1919 C.3       7 UNK         0.0281 
     36 CB         27.5879  -52.5899  -56.4157 C.3       7 UNK        -0.1963 
     37 N          27.1141  -50.5243  -55.1724 N.am      7 UNK        -0.4444 
     38 C          26.3927  -49.5640  -54.5759 C.2       7 UNK         0.5104 
     39 O          25.1942  -49.3766  -54.7821 O.2       7 UNK        -0.5100 
     40 CA         27.1465  -48.6240  -53.6245 C.3       6 UNK         0.0396 
     41 CB         27.2592  -49.2362  -52.2200 C.3       6 UNK        -0.1801 
     42 N          28.4784  -48.2943  -54.1314 N.am      6 UNK        -0.4747 
     43 C          28.7073  -47.4366  -55.1370 C.2       6 UNK         0.5012 
     44 O          27.8181  -46.8263  -55.7319 O.2       6 UNK        -0.5003 
     45 CA         30.1729  -47.2227  -55.5637 C.3       5 UNK         0.0782 
     46 C46        30.8237  -46.1058  -54.7175 C.3       11 UNK        -0.0868 
     47 S47        31.2970  -46.6220  -53.0133 S.3       11 UNK        -0.2515 
     48 C48        30.3427  -45.4931  -51.9406 C.3       11 UNK         0.0199 
     49 N          30.9927  -48.4326  -55.5442 N.am      5 UNK        -0.4607 
     50 C          30.7245  -49.6082  -56.1196 C.2       4 UNK         0.5031 
     51 O          29.7539  -49.8143  -56.8452 O.2       4 UNK        -0.5119 
     52 CA         31.6666  -50.7686  -55.7567 C.3       4 UNK         0.0263 
     53 CB         32.8440  -50.8293  -56.7415 C.3       4 UNK        -0.1967 
     54 N          32.1833  -50.6876  -54.3838 N.am      4 UNK        -0.4237 
     55 C          31.4436  -50.6228  -53.2676 C.2       3 UNK         0.4908 
     56 O          30.2125  -50.6650  -53.2680 O.2       3 UNK        -0.5102 
     57 CA         32.1779  -50.4359  -51.9268 C.3       3 UNK         0.0241 
     58 CB         32.5459  -51.7976  -51.3059 C.3       3 UNK        -0.1971 
     59 N          33.3351  -49.5241  -51.9628 N.am      3 UNK        -0.4139 
     60 C          34.5158  -49.6849  -52.5773 C.2       2 UNK         0.5016 
     61 O          34.7909  -50.6451  -53.2994 O.2       2 UNK        -0.5319 
     62 CA         35.5222  -48.5410  -52.4053 C.3       2 UNK         0.0286 
     63 CB         36.9489  -48.9210  -52.8501 C.3       2 UNK        -0.1963 
     64 N          35.0484  -47.4014  -53.1820 N.am      2 UNK        -0.4790 
     65 C          35.3081  -46.1129  -52.9448 C.2       1 UNK         0.5024 
     66 O          35.9973  -45.7321  -51.9967 O.2       1 UNK        -0.4888 
     67 H67        35.7939  -45.6542  -57.7711 H         1 UNK         0.0892 
     68 H68        34.2737  -46.4338  -58.2156 H         1 UNK         0.0892 
     69 H69        35.6454  -47.4117  -57.6869 H         1 UNK         0.0892 
     70 H70        35.7167  -44.7207  -55.7486 H         1 UNK         0.3107 
     71 H71        33.6269  -45.1899  -53.8639 H         1 UNK         0.0773 
     72 H72        36.1273  -43.4482  -53.6663 H         1 UNK         0.0680 
     73 H73        34.8394  -43.4441  -52.4988 H         1 UNK         0.0680 
     74 H74        33.6591  -41.4758  -52.3482 H         1 UNK         0.0650 
     75 H75        33.0246  -40.4800  -53.6262 H         1 UNK         0.0650 
     76 H76        32.5519  -43.9153  -52.1487 H         1 UNK         0.1397 
     77 H77        28.3242  -43.8984  -52.8081 H         1 UNK         0.1363 
     78 H78        30.7072  -40.5858  -54.1257 H         1 UNK         0.1355 
     79 H79        28.3928  -40.6492  -54.7214 H         1 UNK         0.0707 
     80 H80        27.5983  -41.0029  -53.2062 H         1 UNK         0.0707 
     81 H81        28.6662  -43.8753  -56.0482 H         1 UNK         0.1034 
     82 H82        28.5729  -42.2413  -56.6560 H         1 UNK         0.1034 
     83 H83        26.3461  -42.7921  -57.7113 H         1 UNK         0.0482 
     84 H84        28.1637  -44.7734  -60.5457 H         1 UNK         0.3460 
     85 H85        26.9306  -45.4114  -59.4858 H         1 UNK         0.3460 
     86 H86        26.8772  -45.5257  -56.6771 H         1 UNK         0.2989 
     87 H87        24.5631  -46.5623  -56.0764 H         1 UNK         0.0559 
     88 H88        23.1048  -46.7374  -58.7693 H         1 UNK         0.0848 
     89 H89        22.4471  -46.0771  -57.2792 H         1 UNK         0.0848 
     90 H90        22.8264  -47.7887  -57.3815 H         1 UNK         0.0848 
     91 H91        25.8869  -48.1406  -56.8760 H         1 UNK         0.3144 
     92 H92        26.6550  -49.5039  -59.9038 H         1 UNK         0.0727 
     93 H93        29.1072  -49.0910  -59.6033 H         1 UNK         0.0790 
     94 H94        28.7543  -47.6707  -58.6203 H         1 UNK         0.0790 
     95 H95        28.3142  -47.6997  -60.3225 H         1 UNK         0.0790 
     96 H96        28.0279  -49.6927  -57.3813 H         1 UNK         0.3215 
     97 H97        25.6594  -51.8659  -55.8168 H         1 UNK         0.0863 
     98 H98        27.7722  -53.1403  -55.4930 H         1 UNK         0.0808 
     99 H99        28.5476  -52.2327  -56.7902 H         1 UNK         0.0808 
    100 H100       27.1998  -53.3020  -57.1451 H         1 UNK         0.0808 
    101 H101       28.1002  -50.5847  -54.9565 H         1 UNK         0.3118 
    102 H102       26.5722  -47.6986  -53.5410 H         1 UNK         0.0546 
    103 H103       26.2710  -49.4304  -51.8013 H         1 UNK         0.0828 
    104 H104       27.7753  -48.5638  -51.5345 H         1 UNK         0.0828 
    105 H105       27.7988  -50.1837  -52.2298 H         1 UNK         0.0828 
    106 H106       29.2622  -48.7924  -53.7243 H         1 UNK         0.3005 
    107 H107       30.1437  -46.8860  -56.6019 H         1 UNK         0.1257 
    108 H108       30.1730  -45.2332  -54.7030 H         1 UNK         0.0775 
    109 H109       31.7278  -45.7597  -55.2170 H         1 UNK         0.0775 
    110 H110       29.3064  -45.8339  -51.9111 H         1 UNK         0.0840 
    111 H111       30.7211  -45.5590  -50.9198 H         1 UNK         0.0840 
    112 H112       31.8483  -48.3537  -55.0111 H         1 UNK         0.2987 
    113 H113       31.0944  -51.6947  -55.8393 H         1 UNK         0.0785 
    114 H114       32.4892  -50.9088  -57.7701 H         1 UNK         0.0798 
    115 H115       33.4780  -51.6951  -56.5495 H         1 UNK         0.0798 
    116 H116       33.4678  -49.9362  -56.6786 H         1 UNK         0.0798 
    117 H117       33.1940  -50.6767  -54.2637 H         1 UNK         0.3079 
    118 H118       31.4607  -49.9596  -51.2561 H         1 UNK         0.0794 
    119 H119       33.2519  -52.3527  -51.9242 H         1 UNK         0.0786 
    120 H120       31.6594  -52.4226  -51.1887 H         1 UNK         0.0786 
    121 H121       32.9887  -51.6759  -50.3174 H         1 UNK         0.0786 
    122 H122       33.1963  -48.6546  -51.4654 H         1 UNK         0.3032 
    123 H123       35.5479  -48.2797  -51.3447 H         1 UNK         0.1094 
    124 H124       37.6548  -48.1142  -52.6527 H         1 UNK         0.0794 
    125 H125       37.3041  -49.8008  -52.3120 H         1 UNK         0.0794 
    126 H126       36.9914  -49.1488  -53.9159 H         1 UNK         0.0794 
    127 H127       34.4884  -47.6133  -54.0080 H         1 UNK         0.3016 
@<TRIPOS>BOND
     1    1    2 1    
     2    1   67 1    
     3    1   68 1    
     4    1   69 1    
     5    2    3 2    
     6    2    4 am   BACKBONE|DICT|INTERRES
     7    4    5 1    
     8    4   70 1    
     9    5    6 1    
    10    5   65 1    
    11    5   71 1    
    12    6    7 1    
    13    6   72 1    
    14    6   73 1    
    15    7    8 1    
    16    8    9 1    
    17    8   74 1    
    18    8   75 1    
    19    9   10 ar   
    20    9   14 ar   
    21   10   11 ar   
    22   10   76 1    
    23   11   12 ar   
    24   11   48 1    
    25   12   13 ar   
    26   12   77 1    
    27   13   14 ar   
    28   13   15 1    
    29   14   78 1    
    30   15   16 1    
    31   15   79 1    
    32   15   80 1    
    33   16   17 1    
    34   17   18 1    
    35   17   81 1    
    36   17   82 1    
    37   18   19 1    
    38   18   22 1    
    39   18   83 1    
    40   19   20 am   BACKBONE|DICT|INTERRES
    41   19   21 2    
    42   20   84 1    
    43   20   85 1    
    44   22   23 am   BACKBONE|DICT|INTERRES
    45   22   86 1    
    46   23   24 2    
    47   23   25 1    
    48   25   26 1    
    49   25   27 1    
    50   25   87 1    
    51   26   88 1    
    52   26   89 1    
    53   26   90 1    
    54   27   28 am   BACKBONE|DICT|INTERRES
    55   27   91 1    
    56   28   29 2    
    57   28   30 1    
    58   30   31 1    
    59   30   32 1    
    60   30   92 1    
    61   31   93 1    
    62   31   94 1    
    63   31   95 1    
    64   32   33 am   BACKBONE|DICT|INTERRES
    65   32   96 1    
    66   33   34 2    
    67   33   35 1    
    68   35   36 1    
    69   35   37 1    
    70   35   97 1    
    71   36   98 1    
    72   36   99 1    
    73   36  100 1    
    74   37   38 am   BACKBONE|DICT|INTERRES
    75   37  101 1    
    76   38   39 2    
    77   38   40 1    
    78   40   41 1    
    79   40   42 1    
    80   40  102 1    
    81   41  103 1    
    82   41  104 1    
    83   41  105 1    
    84   42   43 am   BACKBONE|DICT|INTERRES
    85   42  106 1    
    86   43   44 2    
    87   43   45 1    
    88   45   46 1    
    89   45   49 1    
    90   45  107 1    
    91   46   47 1    
    92   46  108 1    
    93   46  109 1    
    94   47   48 1    
    95   48  110 1    
    96   48  111 1    
    97   49   50 am   BACKBONE|DICT|INTERRES
    98   49  112 1    
    99   50   51 2    
   100   50   52 1    
   101   52   53 1    
   102   52   54 1    
   103   52  113 1    
   104   53  114 1    
   105   53  115 1    
   106   53  116 1    
   107   54   55 am   BACKBONE|DICT|INTERRES
   108   54  117 1    
   109   55   56 2    
   110   55   57 1    
   111   57   58 1    
   112   57   59 1    
   113   57  118 1    
   114   58  119 1    
   115   58  120 1    
   116   58  121 1    
   117   59   60 am   BACKBONE|DICT|INTERRES
   118   59  122 1    
   119   60   61 2    
   120   60   62 1    
   121   62   63 1    
   122   62   64 1    
   123   62  123 1    
   124   63  124 1    
   125   63  125 1    
   126   63  126 1    
   127   64   65 am   BACKBONE|DICT|INTERRES
   128   64  127 1    
   129   65   66 2    
@<TRIPOS>SUBSTRUCTURE
     1 UNK         1 GROUP             0       ****    0 ROOT    
