@<TRIPOS>MOLECULE
3R134
127   129    1
SMALL
USER_CHARGES


@<TRIPOS>ATOM
      1 CA         37.1887  -42.4591  -56.0973 C.3       0 UNK        -0.1968 
      2 C          35.8154  -43.0548  -56.3713 C.2       0 UNK         0.4852 
      3 O          34.9471  -42.3664  -56.9097 O.2       0 UNK        -0.5359 
      4 N          35.6171  -44.3259  -56.0105 N.am      1 UNK        -0.4300 
      5 CA         34.3812  -45.0849  -56.1920 C.3       1 UNK         0.0863 
      6 C6         33.2522  -44.6667  -55.2076 C.3       11 UNK        -0.0953 
      7 S7         33.6886  -44.8166  -53.4399 S.3       11 UNK        -0.2369 
      8 C8         32.8405  -43.3696  -52.7358 C.3       11 UNK         0.0226 
      9 C9         31.3357  -43.5829  -52.6342 C.ar      11 UNK        -0.0699 
     10 C10        30.7872  -44.1632  -51.4867 C.ar      11 UNK        -0.0804 
     11 C11        29.4036  -44.3148  -51.3607 C.ar      11 UNK        -0.0871 
     12 C12        28.5701  -43.8997  -52.4021 C.ar      11 UNK        -0.1008 
     13 C13        29.0994  -43.3225  -53.5601 C.ar      11 UNK        -0.0735 
     14 C14        30.4884  -43.1633  -53.6653 C.ar      11 UNK        -0.0945 
     15 C15        28.1195  -42.8300  -54.6249 C.3       11 UNK         0.0169 
     16 S16        28.8317  -42.4830  -56.2699 S.3       11 UNK        -0.2669 
     17 C17        27.3747  -41.7450  -57.0973 C.3       11 UNK        -0.0850 
     18 CA         26.7610  -42.6327  -58.2122 C.3       10 UNK         0.0855 
     19 C          27.5556  -42.5324  -59.5489 C.2       10 UNK         0.5543 
     20 N          28.0939  -43.6129  -60.1004 N.am      10 UNK        -0.7343 
     21 O          27.6699  -41.4445  -60.1087 O.2       10 UNK        -0.5027 
     22 N          26.5098  -43.9994  -57.7325 N.am      10 UNK        -0.4495 
     23 C          25.6206  -44.8534  -58.2510 C.2       10 UNK         0.4903 
     24 O          24.8079  -44.5430  -59.1236 O.2       10 UNK        -0.4860 
     25 CA         25.6504  -46.2971  -57.7018 C.3       9 UNK         0.0227 
     26 CB         25.0554  -47.3136  -58.6983 C.3       9 UNK        -0.1964 
     27 N          26.9750  -46.7539  -57.2528 N.am      9 UNK        -0.4231 
     28 C          28.1136  -46.7699  -57.9661 C.2       9 UNK         0.5014 
     29 O          28.2289  -46.3062  -59.1008 O.2       9 UNK        -0.5270 
     30 CA         29.3294  -47.4308  -57.3000 C.3       8 UNK         0.0284 
     31 CB         29.8802  -46.5546  -56.1609 C.3       8 UNK        -0.1977 
     32 N          29.0139  -48.7690  -56.7979 N.am      8 UNK        -0.4342 
     33 C          28.6787  -49.8194  -57.5637 C.2       8 UNK         0.5039 
     34 O          28.6723  -49.8032  -58.7948 O.2       8 UNK        -0.5547 
     35 CA         28.2649  -51.1057  -56.8316 C.3       7 UNK         0.0281 
     36 CB         29.4917  -51.9707  -56.4945 C.3       7 UNK        -0.1963 
     37 N          27.5071  -50.8059  -55.6148 N.am      7 UNK        -0.4444 
     38 C          26.2099  -50.4646  -55.6051 C.2       7 UNK         0.5104 
     39 O          25.4910  -50.4772  -56.6040 O.2       7 UNK        -0.5100 
     40 CA         25.6071  -50.0272  -54.2577 C.3       6 UNK         0.0396 
     41 CB         24.9276  -51.2182  -53.5637 C.3       6 UNK        -0.1801 
     42 N          26.5892  -49.4335  -53.3469 N.am      6 UNK        -0.4747 
     43 C          27.1747  -48.2386  -53.5206 C.2       6 UNK         0.5012 
     44 O          26.9278  -47.4860  -54.4638 O.2       6 UNK        -0.5003 
     45 CA         28.2614  -47.8560  -52.4942 C.3       5 UNK         0.0782 
     46 C46        27.6264  -47.1714  -51.2596 C.3       11 UNK        -0.0868 
     47 S47        28.8744  -46.6900  -50.0157 S.3       11 UNK        -0.2515 
     48 C48        28.8068  -44.8741  -50.0772 C.3       11 UNK         0.0199 
     49 N          29.0865  -49.0102  -52.1115 N.am      5 UNK        -0.4607 
     50 C          29.8609  -49.7130  -52.9434 C.2       4 UNK         0.5031 
     51 O          29.9362  -49.5017  -54.1562 O.2       4 UNK        -0.5119 
     52 CA         30.6267  -50.8863  -52.3299 C.3       4 UNK         0.0263 
     53 CB         29.7872  -52.1745  -52.3824 C.3       4 UNK        -0.1967 
     54 N          31.8617  -51.0712  -53.0815 N.am      4 UNK        -0.4237 
     55 C          33.0354  -51.4495  -52.5624 C.2       3 UNK         0.4908 
     56 O          33.1819  -51.7820  -51.3851 O.2       3 UNK        -0.5102 
     57 CA         34.2638  -51.4710  -53.4965 C.3       3 UNK         0.0241 
     58 CB         34.6704  -52.9212  -53.8098 C.3       3 UNK        -0.1971 
     59 N          34.1047  -50.7416  -54.7612 N.am      3 UNK        -0.4139 
     60 C          33.9170  -49.4198  -54.8804 C.2       2 UNK         0.5016 
     61 O          33.8191  -48.6566  -53.9174 O.2       2 UNK        -0.5319 
     62 CA         33.7781  -48.8910  -56.3226 C.3       2 UNK         0.0286 
     63 CB         32.5234  -49.4763  -56.9946 C.3       2 UNK        -0.1963 
     64 N          33.6976  -47.4288  -56.3863 N.am      2 UNK        -0.4790 
     65 C          34.7132  -46.5893  -56.1459 C.2       1 UNK         0.5024 
     66 O          35.8696  -46.9599  -55.9172 O.2       1 UNK        -0.4888 
     67 H67        37.0973  -41.5922  -55.4436 H         1 UNK         0.0892 
     68 H68        37.8554  -43.1758  -55.6179 H         1 UNK         0.0892 
     69 H69        37.6511  -42.1366  -57.0298 H         1 UNK         0.0892 
     70 H70        36.3692  -44.8789  -55.6168 H         1 UNK         0.3107 
     71 H71        34.0288  -44.8921  -57.2077 H         1 UNK         0.0773 
     72 H72        32.3455  -45.2444  -55.3805 H         1 UNK         0.0680 
     73 H73        32.9746  -43.6332  -55.4161 H         1 UNK         0.0680 
     74 H74        33.0653  -42.4825  -53.3299 H         1 UNK         0.0650 
     75 H75        33.2506  -43.1772  -51.7433 H         1 UNK         0.0650 
     76 H76        31.4367  -44.4793  -50.6817 H         1 UNK         0.1397 
     77 H77        27.4980  -44.0010  -52.3005 H         1 UNK         0.1363 
     78 H78        30.9199  -42.6947  -54.5376 H         1 UNK         0.1355 
     79 H79        27.6522  -41.9194  -54.2473 H         1 UNK         0.0707 
     80 H80        27.3215  -43.5643  -54.7475 H         1 UNK         0.0707 
     81 H81        26.6047  -41.5356  -56.3535 H         1 UNK         0.1034 
     82 H82        27.6562  -40.7647  -57.4872 H         1 UNK         0.1034 
     83 H83        25.7860  -42.1989  -58.4429 H         1 UNK         0.0482 
     84 H84        28.5955  -43.5204  -60.9687 H         1 UNK         0.3460 
     85 H85        28.0201  -44.5263  -59.6597 H         1 UNK         0.3460 
     86 H86        27.1614  -44.3420  -57.0424 H         1 UNK         0.2989 
     87 H87        25.0174  -46.2952  -56.8135 H         1 UNK         0.0559 
     88 H88        24.0211  -47.0692  -58.9429 H         1 UNK         0.0848 
     89 H89        25.0580  -48.3220  -58.2848 H         1 UNK         0.0848 
     90 H90        25.6167  -47.3349  -59.6331 H         1 UNK         0.0848 
     91 H91        27.0068  -47.1159  -56.3008 H         1 UNK         0.3144 
     92 H92        30.1106  -47.5378  -58.0554 H         1 UNK         0.0727 
     93 H93        29.1286  -46.3434  -55.4008 H         1 UNK         0.0790 
     94 H94        30.2216  -45.5925  -56.5453 H         1 UNK         0.0790 
     95 H95        30.7233  -47.0313  -55.6615 H         1 UNK         0.0790 
     96 H96        29.0818  -48.9105  -55.7943 H         1 UNK         0.3215 
     97 H97        27.6277  -51.6811  -57.5072 H         1 UNK         0.0863 
     98 H98        29.1985  -52.9028  -56.0116 H         1 UNK         0.0808 
     99 H99        30.1918  -51.4575  -55.8369 H         1 UNK         0.0808 
    100 H100       30.0375  -52.2351  -57.4012 H         1 UNK         0.0808 
    101 H101       28.0320  -50.7319  -54.7556 H         1 UNK         0.3118 
    102 H102       24.8438  -49.2749  -54.4684 H         1 UNK         0.0546 
    103 H103       25.6424  -52.0025  -53.3111 H         1 UNK         0.0828 
    104 H104       24.1699  -51.6647  -54.2093 H         1 UNK         0.0828 
    105 H105       24.4265  -50.9105  -52.6458 H         1 UNK         0.0828 
    106 H106       26.8557  -49.9827  -52.5423 H         1 UNK         0.3005 
    107 H107       28.9203  -47.1330  -52.9816 H         1 UNK         0.1257 
    108 H108       26.9160  -47.8419  -50.7720 H         1 UNK         0.0775 
    109 H109       27.0507  -46.2946  -51.5603 H         1 UNK         0.0775 
    110 H110       27.7751  -44.5418  -49.9505 H         1 UNK         0.0840 
    111 H111       29.3550  -44.4763  -49.2218 H         1 UNK         0.0840 
    112 H112       29.0867  -49.2396  -51.1279 H         1 UNK         0.2987 
    113 H113       30.8586  -50.6415  -51.2908 H         1 UNK         0.0785 
    114 H114       28.8519  -52.0586  -51.8336 H         1 UNK         0.0798 
    115 H115       30.3226  -53.0113  -51.9334 H         1 UNK         0.0798 
    116 H116       29.5357  -52.4526  -53.4064 H         1 UNK         0.0798 
    117 H117       31.8265  -50.7394  -54.0359 H         1 UNK         0.3079 
    118 H118       35.0824  -50.9986  -52.9494 H         1 UNK         0.0794 
    119 H119       35.5962  -52.9604  -54.3842 H         1 UNK         0.0786 
    120 H120       33.8983  -53.4427  -54.3772 H         1 UNK         0.0786 
    121 H121       34.8387  -53.4882  -52.8929 H         1 UNK         0.0786 
    122 H122       34.1634  -51.2974  -55.6025 H         1 UNK         0.3032 
    123 H123       34.6610  -49.2068  -56.8835 H         1 UNK         0.1094 
    124 H124       31.6330  -49.2847  -56.3977 H         1 UNK         0.0794 
    125 H125       32.3622  -49.0535  -57.9865 H         1 UNK         0.0794 
    126 H126       32.6019  -50.5567  -57.1201 H         1 UNK         0.0794 
    127 H127       32.7800  -47.0409  -56.5416 H         1 UNK         0.3016 
@<TRIPOS>BOND
     1    1    2 1    
     2    1   67 1    
     3    1   68 1    
     4    1   69 1    
     5    2    3 2    
     6    2    4 am   BACKBONE|DICT|INTERRES
     7    4    5 1    
     8    4   70 1    
     9    5    6 1    
    10    5   65 1    
    11    5   71 1    
    12    6    7 1    
    13    6   72 1    
    14    6   73 1    
    15    7    8 1    
    16    8    9 1    
    17    8   74 1    
    18    8   75 1    
    19    9   10 ar   
    20    9   14 ar   
    21   10   11 ar   
    22   10   76 1    
    23   11   12 ar   
    24   11   48 1    
    25   12   13 ar   
    26   12   77 1    
    27   13   14 ar   
    28   13   15 1    
    29   14   78 1    
    30   15   16 1    
    31   15   79 1    
    32   15   80 1    
    33   16   17 1    
    34   17   18 1    
    35   17   81 1    
    36   17   82 1    
    37   18   19 1    
    38   18   22 1    
    39   18   83 1    
    40   19   20 am   BACKBONE|DICT|INTERRES
    41   19   21 2    
    42   20   84 1    
    43   20   85 1    
    44   22   23 am   BACKBONE|DICT|INTERRES
    45   22   86 1    
    46   23   24 2    
    47   23   25 1    
    48   25   26 1    
    49   25   27 1    
    50   25   87 1    
    51   26   88 1    
    52   26   89 1    
    53   26   90 1    
    54   27   28 am   BACKBONE|DICT|INTERRES
    55   27   91 1    
    56   28   29 2    
    57   28   30 1    
    58   30   31 1    
    59   30   32 1    
    60   30   92 1    
    61   31   93 1    
    62   31   94 1    
    63   31   95 1    
    64   32   33 am   BACKBONE|DICT|INTERRES
    65   32   96 1    
    66   33   34 2    
    67   33   35 1    
    68   35   36 1    
    69   35   37 1    
    70   35   97 1    
    71   36   98 1    
    72   36   99 1    
    73   36  100 1    
    74   37   38 am   BACKBONE|DICT|INTERRES
    75   37  101 1    
    76   38   39 2    
    77   38   40 1    
    78   40   41 1    
    79   40   42 1    
    80   40  102 1    
    81   41  103 1    
    82   41  104 1    
    83   41  105 1    
    84   42   43 am   BACKBONE|DICT|INTERRES
    85   42  106 1    
    86   43   44 2    
    87   43   45 1    
    88   45   46 1    
    89   45   49 1    
    90   45  107 1    
    91   46   47 1    
    92   46  108 1    
    93   46  109 1    
    94   47   48 1    
    95   48  110 1    
    96   48  111 1    
    97   49   50 am   BACKBONE|DICT|INTERRES
    98   49  112 1    
    99   50   51 2    
   100   50   52 1    
   101   52   53 1    
   102   52   54 1    
   103   52  113 1    
   104   53  114 1    
   105   53  115 1    
   106   53  116 1    
   107   54   55 am   BACKBONE|DICT|INTERRES
   108   54  117 1    
   109   55   56 2    
   110   55   57 1    
   111   57   58 1    
   112   57   59 1    
   113   57  118 1    
   114   58  119 1    
   115   58  120 1    
   116   58  121 1    
   117   59   60 am   BACKBONE|DICT|INTERRES
   118   59  122 1    
   119   60   61 2    
   120   60   62 1    
   121   62   63 1    
   122   62   64 1    
   123   62  123 1    
   124   63  124 1    
   125   63  125 1    
   126   63  126 1    
   127   64   65 am   BACKBONE|DICT|INTERRES
   128   64  127 1    
   129   65   66 2    
@<TRIPOS>SUBSTRUCTURE
     1 UNK         1 GROUP             0       ****    0 ROOT    
