@<TRIPOS>MOLECULE
3R134
127   129    1
SMALL
USER_CHARGES


@<TRIPOS>ATOM
      1 CA         37.9498  -48.0495  -51.1614 C.3       0 UNK        -0.1968 
      2 C          36.7937  -47.6370  -52.0599 C.2       0 UNK         0.4852 
      3 O          36.1246  -48.5017  -52.6279 O.2       0 UNK        -0.5359 
      4 N          36.5421  -46.3235  -52.1786 N.am      1 UNK        -0.4300 
      5 CA         35.4962  -45.7236  -53.0234 C.3       1 UNK         0.0863 
      6 C6         35.5955  -44.1729  -53.0439 C.3       11 UNK        -0.0953 
      7 S7         35.2807  -43.4610  -54.6967 S.3       11 UNK        -0.2369 
      8 C8         34.0576  -42.1540  -54.3525 C.3       11 UNK         0.0226 
      9 C9         32.6333  -42.6397  -54.5772 C.ar      11 UNK        -0.0699 
     10 C10        31.9644  -43.3474  -53.5760 C.ar      11 UNK        -0.0804 
     11 C11        30.6673  -43.8286  -53.7783 C.ar      11 UNK        -0.0871 
     12 C12        30.0312  -43.5669  -55.0007 C.ar      11 UNK        -0.1008 
     13 C13        30.6790  -42.8368  -56.0025 C.ar      11 UNK        -0.0735 
     14 C14        31.9829  -42.3819  -55.7880 C.ar      11 UNK        -0.0945 
     15 C15        29.9654  -42.5450  -57.3146 C.3       11 UNK         0.0169 
     16 S16        30.2054  -43.9023  -58.5011 S.3       11 UNK        -0.2669 
     17 C17        29.0030  -43.5041  -59.8234 C.3       11 UNK        -0.0850 
     18 CA         27.5128  -43.4496  -59.3761 C.3       10 UNK         0.0855 
     19 C          26.5545  -43.3560  -60.6001 C.2       10 UNK         0.5543 
     20 N          25.5821  -44.2466  -60.7575 N.am      10 UNK        -0.7343 
     21 O          26.6962  -42.4530  -61.4210 O.2       10 UNK        -0.5027 
     22 N          27.1874  -44.5163  -58.4181 N.am      10 UNK        -0.4495 
     23 C          26.1991  -44.4721  -57.5182 C.2       10 UNK         0.4903 
     24 O          25.3950  -43.5441  -57.4203 O.2       10 UNK        -0.4860 
     25 CA         26.1364  -45.6648  -56.5484 C.3       9 UNK         0.0227 
     26 CB         24.8373  -45.7174  -55.7174 C.3       9 UNK        -0.1964 
     27 N          26.4073  -46.9582  -57.1962 N.am      9 UNK        -0.4231 
     28 C          25.7014  -47.5159  -58.1917 C.2       9 UNK         0.5014 
     29 O          24.6920  -47.0030  -58.6773 O.2       9 UNK        -0.5270 
     30 CA         26.1989  -48.8417  -58.7903 C.3       8 UNK         0.0284 
     31 CB         26.9242  -48.5786  -60.1242 C.3       8 UNK        -0.1977 
     32 N          27.0681  -49.6402  -57.9126 N.am      8 UNK        -0.4342 
     33 C          27.1271  -50.9799  -57.9601 C.2       8 UNK         0.5039 
     34 O          26.3574  -51.6751  -58.6258 O.2       8 UNK        -0.5547 
     35 CA         28.2625  -51.6729  -57.1874 C.3       7 UNK         0.0281 
     36 CB         29.6209  -51.3914  -57.8509 C.3       7 UNK        -0.1963 
     37 N          28.3222  -51.3233  -55.7684 N.am      7 UNK        -0.4444 
     38 C          27.4452  -51.7379  -54.8422 C.2       7 UNK         0.5104 
     39 O          26.4582  -52.4312  -55.0895 O.2       7 UNK        -0.5100 
     40 CA         27.7183  -51.3080  -53.3885 C.3       6 UNK         0.0396 
     41 CB         28.7390  -52.2407  -52.7167 C.3       6 UNK        -0.1801 
     42 N          28.1847  -49.9227  -53.3160 N.am      6 UNK        -0.4747 
     43 C          27.3829  -48.8653  -53.5063 C.2       6 UNK         0.5012 
     44 O          26.1576  -48.9485  -53.5952 O.2       6 UNK        -0.5003 
     45 CA         28.0475  -47.4908  -53.6893 C.3       5 UNK         0.0782 
     46 C46        28.0065  -46.6379  -52.3992 C.3       11 UNK        -0.0868 
     47 S47        28.2192  -44.8663  -52.7797 S.3       11 UNK        -0.2515 
     48 C48        30.0316  -44.6725  -52.6724 C.3       11 UNK         0.0199 
     49 N          29.3987  -47.6039  -54.2496 N.am      5 UNK        -0.4607 
     50 C          29.6711  -47.8671  -55.5349 C.2       4 UNK         0.5031 
     51 O          28.8049  -48.0203  -56.3959 O.2       4 UNK        -0.5119 
     52 CA         31.1479  -48.0405  -55.9241 C.3       4 UNK         0.0263 
     53 CB         31.7434  -46.7078  -56.3967 C.3       4 UNK        -0.1967 
     54 N          31.9557  -48.5934  -54.8357 N.am      4 UNK        -0.4237 
     55 C          31.8201  -49.8461  -54.3729 C.2       3 UNK         0.4908 
     56 O          31.0293  -50.6582  -54.8527 O.2       3 UNK        -0.5102 
     57 CA         32.6533  -50.2566  -53.1448 C.3       3 UNK         0.0241 
     58 CB         33.9417  -50.9669  -53.5861 C.3       3 UNK        -0.1971 
     59 N          32.9892  -49.1382  -52.2594 N.am      3 UNK        -0.4139 
     60 C          32.0885  -48.3761  -51.6187 C.2       2 UNK         0.5016 
     61 O          30.8739  -48.5733  -51.6669 O.2       2 UNK        -0.5319 
     62 CA         32.6161  -47.1485  -50.8505 C.3       2 UNK         0.0286 
     63 CB         32.8255  -47.4993  -49.3694 C.3       2 UNK        -0.1963 
     64 N          33.8555  -46.5734  -51.3889 N.am      2 UNK        -0.4790 
     65 C          34.0723  -46.2000  -52.6613 C.2       1 UNK         0.5024 
     66 O          33.2185  -46.2796  -53.5421 O.2       1 UNK        -0.4888 
     67 H67        38.6931  -48.5994  -51.7378 H         1 UNK         0.0892 
     68 H68        37.5907  -48.6975  -50.3625 H         1 UNK         0.0892 
     69 H69        38.4413  -47.1899  -50.7063 H         1 UNK         0.0892 
     70 H70        37.1265  -45.6688  -51.6779 H         1 UNK         0.3107 
     71 H71        35.6935  -46.0969  -54.0309 H         1 UNK         0.0773 
     72 H72        36.6046  -43.8544  -52.7776 H         1 UNK         0.0680 
     73 H73        34.9467  -43.7169  -52.2938 H         1 UNK         0.0680 
     74 H74        34.1760  -41.7760  -53.3361 H         1 UNK         0.0650 
     75 H75        34.2666  -41.3087  -55.0098 H         1 UNK         0.0650 
     76 H76        32.4711  -43.5533  -52.6436 H         1 UNK         0.1397 
     77 H77        29.0356  -43.9394  -55.1930 H         1 UNK         0.1363 
     78 H78        32.4933  -41.8323  -56.5671 H         1 UNK         0.1355 
     79 H79        30.3284  -41.6130  -57.7505 H         1 UNK         0.0707 
     80 H80        28.9028  -42.4020  -57.1173 H         1 UNK         0.0707 
     81 H81        29.1307  -44.2585  -60.6022 H         1 UNK         0.1034 
     82 H82        29.2924  -42.5559  -60.2805 H         1 UNK         0.1034 
     83 H83        27.3770  -42.5038  -58.8493 H         1 UNK         0.0482 
     84 H84        25.4395  -44.9747  -60.0732 H         1 UNK         0.3460 
     85 H85        24.9672  -44.1725  -61.5524 H         1 UNK         0.3460 
     86 H86        27.8050  -45.3142  -58.4239 H         1 UNK         0.2989 
     87 H87        26.9603  -45.4813  -55.8610 H         1 UNK         0.0559 
     88 H88        24.8490  -46.5505  -55.0145 H         1 UNK         0.0848 
     89 H89        23.9557  -45.8244  -56.3501 H         1 UNK         0.0848 
     90 H90        24.7093  -44.8048  -55.1339 H         1 UNK         0.0848 
     91 H91        27.2702  -47.4131  -56.9008 H         1 UNK         0.3144 
     92 H92        25.2943  -49.4151  -59.0045 H         1 UNK         0.0727 
     93 H93        27.1524  -49.5098  -60.6430 H         1 UNK         0.0790 
     94 H94        27.8613  -48.0417  -59.9719 H         1 UNK         0.0790 
     95 H95        26.3090  -47.9795  -60.7973 H         1 UNK         0.0790 
     96 H96        27.7406  -49.1405  -57.3339 H         1 UNK         0.3215 
     97 H97        28.0874  -52.7494  -57.2499 H         1 UNK         0.0863 
     98 H98        30.4264  -51.9319  -57.3534 H         1 UNK         0.0808 
     99 H99        29.8689  -50.3307  -57.8342 H         1 UNK         0.0808 
    100 H100       29.6161  -51.7064  -58.8952 H         1 UNK         0.0808 
    101 H101       29.1527  -50.8301  -55.4552 H         1 UNK         0.3118 
    102 H102       26.7814  -51.3881  -52.8328 H         1 UNK         0.0546 
    103 H103       28.3763  -53.2693  -52.7100 H         1 UNK         0.0828 
    104 H104       28.9168  -51.9536  -51.6803 H         1 UNK         0.0828 
    105 H105       29.6984  -52.2408  -53.2334 H         1 UNK         0.0828 
    106 H106       29.1806  -49.7699  -53.2307 H         1 UNK         0.3005 
    107 H107       27.4216  -46.9918  -54.4234 H         1 UNK         0.1257 
    108 H108       28.7506  -46.9673  -51.6726 H         1 UNK         0.0775 
    109 H109       27.0386  -46.7359  -51.9033 H         1 UNK         0.0775 
    110 H110       30.2672  -44.2425  -51.6977 H         1 UNK         0.0840 
    111 H111       30.5089  -45.6506  -52.6998 H         1 UNK         0.0840 
    112 H112       30.1621  -47.5581  -53.5885 H         1 UNK         0.2987 
    113 H113       31.1942  -48.7398  -56.7602 H         1 UNK         0.0785 
    114 H114       31.6583  -45.9296  -55.6379 H         1 UNK         0.0798 
    115 H115       31.2240  -46.3517  -57.2857 H         1 UNK         0.0798 
    116 H116       32.7973  -46.8080  -56.6557 H         1 UNK         0.0798 
    117 H117       32.5855  -47.9480  -54.3672 H         1 UNK         0.3079 
    118 H118       32.0532  -50.9631  -52.5675 H         1 UNK         0.0794 
    119 H119       34.5902  -50.3040  -54.1606 H         1 UNK         0.0786 
    120 H120       33.7167  -51.8300  -54.2144 H         1 UNK         0.0786 
    121 H121       34.5095  -51.3291  -52.7289 H         1 UNK         0.0786 
    122 H122       33.9696  -48.8856  -52.1994 H         1 UNK         0.3032 
    123 H123       31.8473  -46.3770  -50.9086 H         1 UNK         0.1094 
    124 H124       33.6130  -48.2426  -49.2378 H         1 UNK         0.0794 
    125 H125       33.0924  -46.6183  -48.7853 H         1 UNK         0.0794 
    126 H126       31.9136  -47.9097  -48.9327 H         1 UNK         0.0794 
    127 H127       34.6260  -46.4866  -50.7419 H         1 UNK         0.3016 
@<TRIPOS>BOND
     1    1    2 1    
     2    1   67 1    
     3    1   68 1    
     4    1   69 1    
     5    2    3 2    
     6    2    4 am   BACKBONE|DICT|INTERRES
     7    4    5 1    
     8    4   70 1    
     9    5    6 1    
    10    5   65 1    
    11    5   71 1    
    12    6    7 1    
    13    6   72 1    
    14    6   73 1    
    15    7    8 1    
    16    8    9 1    
    17    8   74 1    
    18    8   75 1    
    19    9   10 ar   
    20    9   14 ar   
    21   10   11 ar   
    22   10   76 1    
    23   11   12 ar   
    24   11   48 1    
    25   12   13 ar   
    26   12   77 1    
    27   13   14 ar   
    28   13   15 1    
    29   14   78 1    
    30   15   16 1    
    31   15   79 1    
    32   15   80 1    
    33   16   17 1    
    34   17   18 1    
    35   17   81 1    
    36   17   82 1    
    37   18   19 1    
    38   18   22 1    
    39   18   83 1    
    40   19   20 am   BACKBONE|DICT|INTERRES
    41   19   21 2    
    42   20   84 1    
    43   20   85 1    
    44   22   23 am   BACKBONE|DICT|INTERRES
    45   22   86 1    
    46   23   24 2    
    47   23   25 1    
    48   25   26 1    
    49   25   27 1    
    50   25   87 1    
    51   26   88 1    
    52   26   89 1    
    53   26   90 1    
    54   27   28 am   BACKBONE|DICT|INTERRES
    55   27   91 1    
    56   28   29 2    
    57   28   30 1    
    58   30   31 1    
    59   30   32 1    
    60   30   92 1    
    61   31   93 1    
    62   31   94 1    
    63   31   95 1    
    64   32   33 am   BACKBONE|DICT|INTERRES
    65   32   96 1    
    66   33   34 2    
    67   33   35 1    
    68   35   36 1    
    69   35   37 1    
    70   35   97 1    
    71   36   98 1    
    72   36   99 1    
    73   36  100 1    
    74   37   38 am   BACKBONE|DICT|INTERRES
    75   37  101 1    
    76   38   39 2    
    77   38   40 1    
    78   40   41 1    
    79   40   42 1    
    80   40  102 1    
    81   41  103 1    
    82   41  104 1    
    83   41  105 1    
    84   42   43 am   BACKBONE|DICT|INTERRES
    85   42  106 1    
    86   43   44 2    
    87   43   45 1    
    88   45   46 1    
    89   45   49 1    
    90   45  107 1    
    91   46   47 1    
    92   46  108 1    
    93   46  109 1    
    94   47   48 1    
    95   48  110 1    
    96   48  111 1    
    97   49   50 am   BACKBONE|DICT|INTERRES
    98   49  112 1    
    99   50   51 2    
   100   50   52 1    
   101   52   53 1    
   102   52   54 1    
   103   52  113 1    
   104   53  114 1    
   105   53  115 1    
   106   53  116 1    
   107   54   55 am   BACKBONE|DICT|INTERRES
   108   54  117 1    
   109   55   56 2    
   110   55   57 1    
   111   57   58 1    
   112   57   59 1    
   113   57  118 1    
   114   58  119 1    
   115   58  120 1    
   116   58  121 1    
   117   59   60 am   BACKBONE|DICT|INTERRES
   118   59  122 1    
   119   60   61 2    
   120   60   62 1    
   121   62   63 1    
   122   62   64 1    
   123   62  123 1    
   124   63  124 1    
   125   63  125 1    
   126   63  126 1    
   127   64   65 am   BACKBONE|DICT|INTERRES
   128   64  127 1    
   129   65   66 2    
@<TRIPOS>SUBSTRUCTURE
     1 UNK         1 GROUP             0       ****    0 ROOT    
