@<TRIPOS>MOLECULE
3R134
127   129    1
SMALL
USER_CHARGES


@<TRIPOS>ATOM
      1 CA         36.3465  -48.7718  -54.1824 C.3       0 UNK        -0.1968 
      2 C          35.2926  -47.6772  -54.1163 C.2       0 UNK         0.4852 
      3 O          34.1161  -47.9587  -54.3552 O.2       0 UNK        -0.5359 
      4 N          35.7079  -46.4437  -53.7844 N.am      1 UNK        -0.4300 
      5 CA         34.8615  -45.2523  -53.6341 C.3       1 UNK         0.0863 
      6 C6         35.7157  -43.9992  -53.2803 C.3       11 UNK        -0.0953 
      7 S7         34.8393  -42.5402  -52.6011 S.3       11 UNK        -0.2369 
      8 C8         34.4731  -41.5608  -54.0899 C.3       11 UNK         0.0226 
      9 C9         33.2529  -42.0975  -54.8214 C.ar      11 UNK        -0.0699 
     10 C10        33.4075  -42.9644  -55.9051 C.ar      11 UNK        -0.0804 
     11 C11        32.2895  -43.4893  -56.5578 C.ar      11 UNK        -0.0871 
     12 C12        31.0080  -43.1097  -56.1476 C.ar      11 UNK        -0.1008 
     13 C13        30.8417  -42.2240  -55.0798 C.ar      11 UNK        -0.0735 
     14 C14        31.9669  -41.7275  -54.4141 C.ar      11 UNK        -0.0945 
     15 C15        29.4465  -41.7937  -54.6582 C.3       11 UNK         0.0169 
     16 S16        28.7485  -42.9336  -53.4211 S.3       11 UNK        -0.2669 
     17 C17        27.1411  -43.4090  -54.1523 C.3       11 UNK        -0.0850 
     18 CA         26.9686  -44.9515  -54.2747 C.3       10 UNK         0.0855 
     19 C          26.4768  -45.6233  -52.9622 C.2       10 UNK         0.5543 
     20 N          27.1625  -45.3975  -51.8519 N.am      10 UNK        -0.7343 
     21 O          25.4774  -46.3403  -52.9376 O.2       10 UNK        -0.5027 
     22 N          26.0963  -45.3139  -55.3978 N.am      10 UNK        -0.4495 
     23 C          26.4648  -45.3720  -56.6789 C.2       10 UNK         0.4903 
     24 O          27.5868  -45.0698  -57.0888 O.2       10 UNK        -0.4860 
     25 CA         25.3954  -45.8279  -57.6774 C.3       9 UNK         0.0227 
     26 CB         24.9737  -44.6525  -58.5825 C.3       9 UNK        -0.1964 
     27 N          25.9399  -46.9357  -58.4592 N.am      9 UNK        -0.4231 
     28 C          25.2643  -47.7139  -59.3151 C.2       9 UNK         0.5014 
     29 O          24.0636  -47.5889  -59.5597 O.2       9 UNK        -0.5270 
     30 CA         26.0553  -48.8365  -60.0029 C.3       8 UNK         0.0284 
     31 CB         27.1845  -48.2695  -60.8821 C.3       8 UNK        -0.1977 
     32 N          26.6202  -49.7344  -58.9978 N.am      8 UNK        -0.4342 
     33 C          26.2188  -50.9903  -58.7586 C.2       8 UNK         0.5039 
     34 O          25.3727  -51.5808  -59.4318 O.2       8 UNK        -0.5547 
     35 CA         26.8606  -51.7216  -57.5603 C.3       7 UNK         0.0281 
     36 CB         28.0208  -52.6112  -58.0341 C.3       7 UNK        -0.1963 
     37 N          27.3461  -50.8159  -56.5147 N.am      7 UNK        -0.4444 
     38 C          26.5606  -50.0136  -55.7799 C.2       7 UNK         0.5104 
     39 O          25.3306  -50.0599  -55.8061 O.2       7 UNK        -0.5100 
     40 CA         27.2432  -48.9524  -54.8944 C.3       6 UNK         0.0396 
     41 CB         27.2180  -49.4016  -53.4247 C.3       6 UNK        -0.1801 
     42 N          28.6195  -48.5963  -55.2667 N.am      6 UNK        -0.4747 
     43 C          29.0519  -48.2126  -56.4790 C.2       6 UNK         0.5012 
     44 O          28.3149  -48.0859  -57.4563 O.2       6 UNK        -0.5003 
     45 CA         30.5655  -48.0032  -56.6713 C.3       5 UNK         0.0782 
     46 C46        30.9271  -46.5117  -56.5166 C.3       11 UNK        -0.0868 
     47 S47        32.6388  -46.1725  -57.0433 S.3       11 UNK        -0.2515 
     48 C48        32.4743  -44.4819  -57.6927 C.3       11 UNK         0.0199 
     49 N          31.3907  -48.8675  -55.8195 N.am      5 UNK        -0.4607 
     50 C          31.3586  -50.2085  -55.8104 C.2       4 UNK         0.5031 
     51 O          30.5970  -50.8822  -56.5056 O.2       4 UNK        -0.5119 
     52 CA         32.3216  -50.9145  -54.8482 C.3       4 UNK         0.0263 
     53 CB         33.6909  -51.1254  -55.5141 C.3       4 UNK        -0.1967 
     54 N          32.4808  -50.1406  -53.6152 N.am      4 UNK        -0.4237 
     55 C          31.7328  -50.3233  -52.5194 C.2       3 UNK         0.4908 
     56 O          30.8937  -51.2174  -52.4012 O.2       3 UNK        -0.5102 
     57 CA         31.9494  -49.3461  -51.3522 C.3       3 UNK         0.0241 
     58 CB         33.2472  -49.6824  -50.5993 C.3       3 UNK        -0.1971 
     59 N          31.9632  -47.9299  -51.7274 N.am      3 UNK        -0.4139 
     60 C          31.0055  -47.2610  -52.3827 C.2       2 UNK         0.5016 
     61 O          30.0078  -47.7894  -52.8671 O.2       2 UNK        -0.5319 
     62 CA         31.1888  -45.7398  -52.5358 C.3       2 UNK         0.0286 
     63 CB         30.9411  -45.0008  -51.2061 C.3       2 UNK        -0.1963 
     64 N          32.4697  -45.3605  -53.1423 N.am      2 UNK        -0.4790 
     65 C          33.7057  -45.5273  -52.6511 C.2       1 UNK         0.5024 
     66 O          33.9580  -45.9392  -51.5153 O.2       1 UNK        -0.4888 
     67 H67        36.4328  -49.1459  -55.2020 H         1 UNK         0.0892 
     68 H68        37.3268  -48.4158  -53.8664 H         1 UNK         0.0892 
     69 H69        36.0636  -49.6030  -53.5371 H         1 UNK         0.0892 
     70 H70        36.6868  -46.3031  -53.5813 H         1 UNK         0.3107 
     71 H71        34.4214  -45.0865  -54.6169 H         1 UNK         0.0773 
     72 H72        36.4521  -44.2728  -52.5227 H         1 UNK         0.0680 
     73 H73        36.2972  -43.6926  -54.1509 H         1 UNK         0.0680 
     74 H74        35.3444  -41.5373  -54.7462 H         1 UNK         0.0650 
     75 H75        34.2909  -40.5275  -53.7912 H         1 UNK         0.0650 
     76 H76        34.3997  -43.2524  -56.2255 H         1 UNK         0.1397 
     77 H77        30.1372  -43.5065  -56.6527 H         1 UNK         0.1363 
     78 H78        31.8423  -41.0534  -53.5776 H         1 UNK         0.1355 
     79 H79        29.4772  -40.7905  -54.2303 H         1 UNK         0.0707 
     80 H80        28.8100  -41.7205  -55.5402 H         1 UNK         0.0707 
     81 H81        26.3360  -42.9698  -53.5601 H         1 UNK         0.1034 
     82 H82        27.0498  -42.9483  -55.1357 H         1 UNK         0.1034 
     83 H83        27.9409  -45.4041  -54.4829 H         1 UNK         0.0482 
     84 H84        26.8602  -45.8210  -50.9892 H         1 UNK         0.3460 
     85 H85        27.9521  -44.7706  -51.8644 H         1 UNK         0.3460 
     86 H86        25.1720  -45.6202  -55.1219 H         1 UNK         0.2989 
     87 H87        24.5226  -46.1908  -57.1306 H         1 UNK         0.0559 
     88 H88        24.6348  -43.8039  -57.9870 H         1 UNK         0.0848 
     89 H89        24.1524  -44.9248  -59.2450 H         1 UNK         0.0848 
     90 H90        25.8022  -44.3063  -59.2016 H         1 UNK         0.0848 
     91 H91        26.9186  -47.1450  -58.2663 H         1 UNK         0.3144 
     92 H92        25.3651  -49.3778  -60.6535 H         1 UNK         0.0727 
     93 H93        27.9399  -47.7447  -60.2959 H         1 UNK         0.0790 
     94 H94        26.7909  -47.5648  -61.6160 H         1 UNK         0.0790 
     95 H95        27.6872  -49.0640  -61.4338 H         1 UNK         0.0790 
     96 H96        27.2996  -49.3161  -58.3658 H         1 UNK         0.3215 
     97 H97        26.0939  -52.3619  -57.1186 H         1 UNK         0.0863 
     98 H98        28.4424  -53.1874  -57.2102 H         1 UNK         0.0808 
     99 H99        28.8256  -52.0220  -58.4761 H         1 UNK         0.0808 
    100 H100       27.6843  -53.3233  -58.7890 H         1 UNK         0.0808 
    101 H101       28.3515  -50.7230  -56.4226 H         1 UNK         0.3118 
    102 H102       26.6448  -48.0457  -54.9820 H         1 UNK         0.0546 
    103 H103       27.8898  -50.2427  -53.2483 H         1 UNK         0.0828 
    104 H104       26.2161  -49.7102  -53.1227 H         1 UNK         0.0828 
    105 H105       27.5117  -48.5919  -52.7575 H         1 UNK         0.0828 
    106 H106       29.2921  -48.5978  -54.5035 H         1 UNK         0.3005 
    107 H107       30.7765  -48.2935  -57.7032 H         1 UNK         0.1257 
    108 H108       30.7980  -46.1837  -55.4853 H         1 UNK         0.0775 
    109 H109       30.2523  -45.9006  -57.1193 H         1 UNK         0.0775 
    110 H110       33.3712  -44.2326  -58.2617 H         1 UNK         0.0840 
    111 H111       31.6432  -44.4278  -58.3978 H         1 UNK         0.0840 
    112 H112       32.0874  -48.3987  -55.2537 H         1 UNK         0.2987 
    113 H113       31.9071  -51.8987  -54.6187 H         1 UNK         0.0785 
    114 H114       33.5996  -51.7711  -56.3884 H         1 UNK         0.0798 
    115 H115       34.3960  -51.6001  -54.8318 H         1 UNK         0.0798 
    116 H116       34.1291  -50.1860  -55.8517 H         1 UNK         0.0798 
    117 H117       33.1195  -49.3483  -53.6592 H         1 UNK         0.3079 
    118 H118       31.1138  -49.4798  -50.6623 H         1 UNK         0.0794 
    119 H119       33.3462  -49.0837  -49.6936 H         1 UNK         0.0786 
    120 H120       34.1294  -49.5039  -51.2158 H         1 UNK         0.0786 
    121 H121       33.2651  -50.7305  -50.2970 H         1 UNK         0.0786 
    122 H122       32.7647  -47.3826  -51.4245 H         1 UNK         0.3032 
    123 H123       30.4211  -45.4066  -53.2353 H         1 UNK         0.1094 
    124 H124       30.9938  -43.9204  -51.3420 H         1 UNK         0.0794 
    125 H125       29.9508  -45.2313  -50.8128 H         1 UNK         0.0794 
    126 H126       31.6622  -45.2759  -50.4365 H         1 UNK         0.0794 
    127 H127       32.3975  -45.0144  -54.0903 H         1 UNK         0.3016 
@<TRIPOS>BOND
     1    1    2 1    
     2    1   67 1    
     3    1   68 1    
     4    1   69 1    
     5    2    3 2    
     6    2    4 am   BACKBONE|DICT|INTERRES
     7    4    5 1    
     8    4   70 1    
     9    5    6 1    
    10    5   65 1    
    11    5   71 1    
    12    6    7 1    
    13    6   72 1    
    14    6   73 1    
    15    7    8 1    
    16    8    9 1    
    17    8   74 1    
    18    8   75 1    
    19    9   10 ar   
    20    9   14 ar   
    21   10   11 ar   
    22   10   76 1    
    23   11   12 ar   
    24   11   48 1    
    25   12   13 ar   
    26   12   77 1    
    27   13   14 ar   
    28   13   15 1    
    29   14   78 1    
    30   15   16 1    
    31   15   79 1    
    32   15   80 1    
    33   16   17 1    
    34   17   18 1    
    35   17   81 1    
    36   17   82 1    
    37   18   19 1    
    38   18   22 1    
    39   18   83 1    
    40   19   20 am   BACKBONE|DICT|INTERRES
    41   19   21 2    
    42   20   84 1    
    43   20   85 1    
    44   22   23 am   BACKBONE|DICT|INTERRES
    45   22   86 1    
    46   23   24 2    
    47   23   25 1    
    48   25   26 1    
    49   25   27 1    
    50   25   87 1    
    51   26   88 1    
    52   26   89 1    
    53   26   90 1    
    54   27   28 am   BACKBONE|DICT|INTERRES
    55   27   91 1    
    56   28   29 2    
    57   28   30 1    
    58   30   31 1    
    59   30   32 1    
    60   30   92 1    
    61   31   93 1    
    62   31   94 1    
    63   31   95 1    
    64   32   33 am   BACKBONE|DICT|INTERRES
    65   32   96 1    
    66   33   34 2    
    67   33   35 1    
    68   35   36 1    
    69   35   37 1    
    70   35   97 1    
    71   36   98 1    
    72   36   99 1    
    73   36  100 1    
    74   37   38 am   BACKBONE|DICT|INTERRES
    75   37  101 1    
    76   38   39 2    
    77   38   40 1    
    78   40   41 1    
    79   40   42 1    
    80   40  102 1    
    81   41  103 1    
    82   41  104 1    
    83   41  105 1    
    84   42   43 am   BACKBONE|DICT|INTERRES
    85   42  106 1    
    86   43   44 2    
    87   43   45 1    
    88   45   46 1    
    89   45   49 1    
    90   45  107 1    
    91   46   47 1    
    92   46  108 1    
    93   46  109 1    
    94   47   48 1    
    95   48  110 1    
    96   48  111 1    
    97   49   50 am   BACKBONE|DICT|INTERRES
    98   49  112 1    
    99   50   51 2    
   100   50   52 1    
   101   52   53 1    
   102   52   54 1    
   103   52  113 1    
   104   53  114 1    
   105   53  115 1    
   106   53  116 1    
   107   54   55 am   BACKBONE|DICT|INTERRES
   108   54  117 1    
   109   55   56 2    
   110   55   57 1    
   111   57   58 1    
   112   57   59 1    
   113   57  118 1    
   114   58  119 1    
   115   58  120 1    
   116   58  121 1    
   117   59   60 am   BACKBONE|DICT|INTERRES
   118   59  122 1    
   119   60   61 2    
   120   60   62 1    
   121   62   63 1    
   122   62   64 1    
   123   62  123 1    
   124   63  124 1    
   125   63  125 1    
   126   63  126 1    
   127   64   65 am   BACKBONE|DICT|INTERRES
   128   64  127 1    
   129   65   66 2    
@<TRIPOS>SUBSTRUCTURE
     1 UNK         1 GROUP             0       ****    0 ROOT    
