@<TRIPOS>MOLECULE
3R134
127   129    1
SMALL
USER_CHARGES


@<TRIPOS>ATOM
      1 CA         32.7272  -41.5677  -58.6192 C.3       0 UNK        -0.1968 
      2 C          32.6986  -42.7920  -57.7163 C.2       0 UNK         0.4852 
      3 O          31.8990  -43.6995  -57.9492 O.2       0 UNK        -0.5359 
      4 N          33.5571  -42.8157  -56.6881 N.am      1 UNK        -0.4300 
      5 CA         33.6882  -43.9070  -55.7168 C.3       1 UNK         0.0863 
      6 C6         34.6181  -43.5237  -54.5388 C.3       11 UNK        -0.0953 
      7 S7         34.0318  -42.0721  -53.6091 S.3       11 UNK        -0.2369 
      8 C8         33.6871  -42.7972  -51.9694 C.3       11 UNK         0.0226 
      9 C9         32.3903  -43.6015  -51.8905 C.ar      11 UNK        -0.0699 
     10 C10        32.3390  -44.7616  -51.1095 C.ar      11 UNK        -0.0804 
     11 C11        31.1316  -45.4429  -50.9182 C.ar      11 UNK        -0.0871 
     12 C12        29.9700  -44.9639  -51.5328 C.ar      11 UNK        -0.1008 
     13 C13        30.0105  -43.8255  -52.3437 C.ar      11 UNK        -0.0735 
     14 C14        31.2213  -43.1474  -52.5107 C.ar      11 UNK        -0.0945 
     15 C15        28.7456  -43.2741  -52.9899 C.3       11 UNK         0.0169 
     16 S16        27.8040  -44.5299  -53.9157 S.3       11 UNK        -0.2669 
     17 C17        26.7206  -43.4511  -54.9179 C.3       11 UNK        -0.0850 
     18 CA         26.9361  -43.5729  -56.4508 C.3       10 UNK         0.0855 
     19 C          28.3928  -43.2500  -56.8998 C.2       10 UNK         0.5543 
     20 N          29.0594  -44.1097  -57.6600 N.am      10 UNK        -0.7343 
     21 O          28.9187  -42.1938  -56.5570 O.2       10 UNK        -0.5027 
     22 N          26.4030  -44.8466  -56.9600 N.am      10 UNK        -0.4495 
     23 C          25.7784  -44.9883  -58.1356 C.2       10 UNK         0.4903 
     24 O          25.5900  -44.0632  -58.9279 O.2       10 UNK        -0.4860 
     25 CA         25.2631  -46.4016  -58.4652 C.3       9 UNK         0.0227 
     26 CB         24.6770  -46.5169  -59.8892 C.3       9 UNK        -0.1964 
     27 N          26.2607  -47.4503  -58.2269 N.am      9 UNK        -0.4231 
     28 C          27.4577  -47.5896  -58.8221 C.2       9 UNK         0.5014 
     29 O          27.9058  -46.7868  -59.6415 O.2       9 UNK        -0.5270 
     30 CA         28.3081  -48.8229  -58.4523 C.3       8 UNK         0.0284 
     31 CB         29.7553  -48.4194  -58.1170 C.3       8 UNK        -0.1977 
     32 N          27.7337  -49.5818  -57.3358 N.am      8 UNK        -0.4342 
     33 C          26.8667  -50.5986  -57.4712 C.2       8 UNK         0.5039 
     34 O          26.5813  -51.1035  -58.5573 O.2       8 UNK        -0.5547 
     35 CA         26.1447  -51.1126  -56.2082 C.3       7 UNK         0.0281 
     36 CB         26.5995  -52.5279  -55.8183 C.3       7 UNK        -0.1963 
     37 N          26.2644  -50.2166  -55.0544 N.am      7 UNK        -0.4444 
     38 C          25.6210  -49.0441  -54.9502 C.2       7 UNK         0.5104 
     39 O          24.8399  -48.6224  -55.8031 O.2       7 UNK        -0.5100 
     40 CA         25.9468  -48.1595  -53.7333 C.3       6 UNK         0.0396 
     41 CB         24.9391  -48.4100  -52.6016 C.3       6 UNK        -0.1801 
     42 N          27.3098  -48.3229  -53.2172 N.am      6 UNK        -0.4747 
     43 C          28.4331  -48.1238  -53.9242 C.2       6 UNK         0.5012 
     44 O          28.4297  -47.8199  -55.1176 O.2       6 UNK        -0.5003 
     45 CA         29.7859  -48.3336  -53.2109 C.3       5 UNK         0.0782 
     46 C46        29.6810  -48.4638  -51.6662 C.3       11 UNK        -0.0868 
     47 S47        31.3051  -48.2315  -50.8682 S.3       11 UNK        -0.2515 
     48 C48        31.0735  -46.6511  -49.9900 C.3       11 UNK         0.0199 
     49 N          30.5334  -49.4459  -53.8137 N.am      5 UNK        -0.4607 
     50 C          30.1072  -50.7085  -53.9882 C.2       4 UNK         0.5031 
     51 O          28.9741  -51.0920  -53.6926 O.2       4 UNK        -0.5119 
     52 CA         31.0932  -51.7288  -54.5955 C.3       4 UNK         0.0263 
     53 CB         30.7253  -52.0518  -56.0526 C.3       4 UNK        -0.1967 
     54 N          32.4869  -51.2871  -54.5608 N.am      4 UNK        -0.4237 
     55 C          33.2634  -51.2578  -53.4694 C.2       3 UNK         0.4908 
     56 O          32.9247  -51.7078  -52.3745 O.2       3 UNK        -0.5102 
     57 CA         34.6513  -50.6027  -53.6221 C.3       3 UNK         0.0241 
     58 CB         35.7406  -51.6791  -53.7610 C.3       3 UNK        -0.1971 
     59 N          34.7610  -49.6564  -54.7433 N.am      3 UNK        -0.4139 
     60 C          34.0394  -48.5343  -54.8685 C.2       2 UNK         0.5016 
     61 O          33.1629  -48.1898  -54.0711 O.2       2 UNK        -0.5319 
     62 CA         34.2938  -47.6763  -56.1111 C.3       2 UNK         0.0286 
     63 CB         33.5502  -48.2399  -57.3349 C.3       2 UNK        -0.1963 
     64 N          33.8081  -46.3367  -55.8065 N.am      2 UNK        -0.4790 
     65 C          34.2156  -45.1992  -56.3717 C.2       1 UNK         0.5024 
     66 O          35.0186  -45.1448  -57.3072 O.2       1 UNK        -0.4888 
     67 H67        31.7531  -41.0791  -58.6154 H         1 UNK         0.0892 
     68 H68        32.9577  -41.8623  -59.6427 H         1 UNK         0.0892 
     69 H69        33.4731  -40.8405  -58.2986 H         1 UNK         0.0892 
     70 H70        34.1939  -42.0437  -56.5555 H         1 UNK         0.3107 
     71 H71        32.6904  -44.1099  -55.3200 H         1 UNK         0.0773 
     72 H72        35.6247  -43.3042  -54.9006 H         1 UNK         0.0680 
     73 H73        34.7245  -44.3629  -53.8483 H         1 UNK         0.0680 
     74 H74        34.5407  -43.4036  -51.6625 H         1 UNK         0.0650 
     75 H75        33.6195  -41.9825  -51.2475 H         1 UNK         0.0650 
     76 H76        33.2331  -45.1136  -50.6132 H         1 UNK         0.1397 
     77 H77        29.0254  -45.4633  -51.3711 H         1 UNK         0.1363 
     78 H78        31.2470  -42.2422  -53.1017 H         1 UNK         0.1355 
     79 H79        29.0033  -42.4597  -53.6692 H         1 UNK         0.0707 
     80 H80        28.1067  -42.8454  -52.2168 H         1 UNK         0.0707 
     81 H81        26.8506  -42.4110  -54.6139 H         1 UNK         0.1034 
     82 H82        25.6844  -43.6876  -54.6711 H         1 UNK         0.1034 
     83 H83        26.3366  -42.7727  -56.8891 H         1 UNK         0.0482 
     84 H84        30.0297  -43.9140  -57.8924 H         1 UNK         0.3460 
     85 H85        28.6222  -44.9582  -57.9838 H         1 UNK         0.3460 
     86 H86        26.5644  -45.6576  -56.3799 H         1 UNK         0.2989 
     87 H87        24.4498  -46.5951  -57.7643 H         1 UNK         0.0559 
     88 H88        25.4218  -46.2953  -60.6543 H         1 UNK         0.0848 
     89 H89        23.8510  -45.8186  -60.0295 H         1 UNK         0.0848 
     90 H90        24.2887  -47.5175  -60.0788 H         1 UNK         0.0848 
     91 H91        25.9884  -48.1405  -57.5366 H         1 UNK         0.3144 
     92 H92        28.3445  -49.4561  -59.3411 H         1 UNK         0.0727 
     93 H93        30.3624  -49.2897  -57.8781 H         1 UNK         0.0790 
     94 H94        29.8063  -47.7277  -57.2765 H         1 UNK         0.0790 
     95 H95        30.2305  -47.9259  -58.9658 H         1 UNK         0.0790 
     96 H96        27.9060  -49.1916  -56.4125 H         1 UNK         0.3215 
     97 H97        25.0863  -51.1775  -56.4714 H         1 UNK         0.0863 
     98 H98        25.9418  -52.9549  -55.0611 H         1 UNK         0.0808 
     99 H99        27.6097  -52.5367  -55.4164 H         1 UNK         0.0808 
    100 H100       26.5805  -53.2004  -56.6771 H         1 UNK         0.0808 
    101 H101       26.9412  -50.4709  -54.3426 H         1 UNK         0.3118 
    102 H102       25.8456  -47.1204  -54.0535 H         1 UNK         0.0546 
    103 H103       23.9156  -48.2709  -52.9530 H         1 UNK         0.0828 
    104 H104       25.0907  -47.7173  -51.7736 H         1 UNK         0.0828 
    105 H105       25.0139  -49.4255  -52.2107 H         1 UNK         0.0828 
    106 H106       27.3928  -48.6163  -52.2549 H         1 UNK         0.3005 
    107 H107       30.3576  -47.4290  -53.4293 H         1 UNK         0.1257 
    108 H108       29.2973  -49.4456  -51.3835 H         1 UNK         0.0775 
    109 H109       28.9850  -47.7369  -51.2479 H         1 UNK         0.0775 
    110 H110       30.1295  -46.6654  -49.4430 H         1 UNK         0.0840 
    111 H111       31.8513  -46.5655  -49.2295 H         1 UNK         0.0840 
    112 H112       31.4922  -49.2143  -54.0542 H         1 UNK         0.2987 
    113 H113       31.0082  -52.6472  -54.0105 H         1 UNK         0.0785 
    114 H114       29.7110  -52.4380  -56.1311 H         1 UNK         0.0798 
    115 H115       31.3864  -52.8124  -56.4684 H         1 UNK         0.0798 
    116 H116       30.7880  -51.1708  -56.6890 H         1 UNK         0.0798 
    117 H117       32.8642  -50.9129  -55.4183 H         1 UNK         0.3079 
    118 H118       34.8390  -50.0425  -52.7034 H         1 UNK         0.0794 
    119 H119       35.6226  -52.2573  -54.6784 H         1 UNK         0.0786 
    120 H120       35.7049  -52.3813  -52.9267 H         1 UNK         0.0786 
    121 H121       36.7376  -51.2380  -53.7661 H         1 UNK         0.0786 
    122 H122       35.4509  -49.8739  -55.4488 H         1 UNK         0.3032 
    123 H123       35.3685  -47.6409  -56.3047 H         1 UNK         0.1094 
    124 H124       33.7067  -47.6182  -58.2166 H         1 UNK         0.0794 
    125 H125       33.8972  -49.2437  -57.5825 H         1 UNK         0.0794 
    126 H126       32.4769  -48.2967  -57.1548 H         1 UNK         0.0794 
    127 H127       33.1906  -46.3136  -55.0021 H         1 UNK         0.3016 
@<TRIPOS>BOND
     1    1    2 1    
     2    1   67 1    
     3    1   68 1    
     4    1   69 1    
     5    2    3 2    
     6    2    4 am   BACKBONE|DICT|INTERRES
     7    4    5 1    
     8    4   70 1    
     9    5    6 1    
    10    5   65 1    
    11    5   71 1    
    12    6    7 1    
    13    6   72 1    
    14    6   73 1    
    15    7    8 1    
    16    8    9 1    
    17    8   74 1    
    18    8   75 1    
    19    9   10 ar   
    20    9   14 ar   
    21   10   11 ar   
    22   10   76 1    
    23   11   12 ar   
    24   11   48 1    
    25   12   13 ar   
    26   12   77 1    
    27   13   14 ar   
    28   13   15 1    
    29   14   78 1    
    30   15   16 1    
    31   15   79 1    
    32   15   80 1    
    33   16   17 1    
    34   17   18 1    
    35   17   81 1    
    36   17   82 1    
    37   18   19 1    
    38   18   22 1    
    39   18   83 1    
    40   19   20 am   BACKBONE|DICT|INTERRES
    41   19   21 2    
    42   20   84 1    
    43   20   85 1    
    44   22   23 am   BACKBONE|DICT|INTERRES
    45   22   86 1    
    46   23   24 2    
    47   23   25 1    
    48   25   26 1    
    49   25   27 1    
    50   25   87 1    
    51   26   88 1    
    52   26   89 1    
    53   26   90 1    
    54   27   28 am   BACKBONE|DICT|INTERRES
    55   27   91 1    
    56   28   29 2    
    57   28   30 1    
    58   30   31 1    
    59   30   32 1    
    60   30   92 1    
    61   31   93 1    
    62   31   94 1    
    63   31   95 1    
    64   32   33 am   BACKBONE|DICT|INTERRES
    65   32   96 1    
    66   33   34 2    
    67   33   35 1    
    68   35   36 1    
    69   35   37 1    
    70   35   97 1    
    71   36   98 1    
    72   36   99 1    
    73   36  100 1    
    74   37   38 am   BACKBONE|DICT|INTERRES
    75   37  101 1    
    76   38   39 2    
    77   38   40 1    
    78   40   41 1    
    79   40   42 1    
    80   40  102 1    
    81   41  103 1    
    82   41  104 1    
    83   41  105 1    
    84   42   43 am   BACKBONE|DICT|INTERRES
    85   42  106 1    
    86   43   44 2    
    87   43   45 1    
    88   45   46 1    
    89   45   49 1    
    90   45  107 1    
    91   46   47 1    
    92   46  108 1    
    93   46  109 1    
    94   47   48 1    
    95   48  110 1    
    96   48  111 1    
    97   49   50 am   BACKBONE|DICT|INTERRES
    98   49  112 1    
    99   50   51 2    
   100   50   52 1    
   101   52   53 1    
   102   52   54 1    
   103   52  113 1    
   104   53  114 1    
   105   53  115 1    
   106   53  116 1    
   107   54   55 am   BACKBONE|DICT|INTERRES
   108   54  117 1    
   109   55   56 2    
   110   55   57 1    
   111   57   58 1    
   112   57   59 1    
   113   57  118 1    
   114   58  119 1    
   115   58  120 1    
   116   58  121 1    
   117   59   60 am   BACKBONE|DICT|INTERRES
   118   59  122 1    
   119   60   61 2    
   120   60   62 1    
   121   62   63 1    
   122   62   64 1    
   123   62  123 1    
   124   63  124 1    
   125   63  125 1    
   126   63  126 1    
   127   64   65 am   BACKBONE|DICT|INTERRES
   128   64  127 1    
   129   65   66 2    
@<TRIPOS>SUBSTRUCTURE
     1 UNK         1 GROUP             0       ****    0 ROOT    
