@<TRIPOS>MOLECULE
3R134
127   129    1
SMALL
USER_CHARGES


@<TRIPOS>ATOM
      1 CA         32.7291  -44.3561  -58.5186 C.3       0 UNK        -0.1968 
      2 C          32.8357  -44.5391  -57.0122 C.2       0 UNK         0.4852 
      3 O          32.6285  -45.6465  -56.5174 O.2       0 UNK        -0.5359 
      4 N          33.1563  -43.4640  -56.2785 N.am      1 UNK        -0.4300 
      5 CA         33.3056  -43.4627  -54.8205 C.3       1 UNK         0.0863 
      6 C6         33.4897  -42.0187  -54.2772 C.3       11 UNK        -0.0953 
      7 S7         33.7634  -41.8873  -52.4722 S.3       11 UNK        -0.2369 
      8 C8         32.0693  -41.7177  -51.8273 C.3       11 UNK         0.0226 
      9 C9         31.2432  -42.9720  -52.0703 C.ar      11 UNK        -0.0699 
     10 C10        31.5378  -44.1560  -51.3873 C.ar      11 UNK        -0.0804 
     11 C11        30.8028  -45.3214  -51.6314 C.ar      11 UNK        -0.0871 
     12 C12        29.7527  -45.2874  -52.5555 C.ar      11 UNK        -0.1008 
     13 C13        29.4565  -44.1112  -53.2506 C.ar      11 UNK        -0.0735 
     14 C14        30.1970  -42.9543  -52.9957 C.ar      11 UNK        -0.0945 
     15 C15        28.3567  -44.0847  -54.2994 C.3       11 UNK         0.0169 
     16 S16        29.0541  -44.2917  -55.9663 S.3       11 UNK        -0.2669 
     17 C17        29.3694  -46.0904  -55.9961 C.3       11 UNK        -0.0850 
     18 CA         29.3170  -46.6836  -57.4293 C.3       10 UNK         0.0855 
     19 C          29.6672  -48.1994  -57.4300 C.2       10 UNK         0.5543 
     20 N          28.8799  -49.0646  -58.0583 N.am      10 UNK        -0.7343 
     21 O          30.6666  -48.6074  -56.8439 O.2       10 UNK        -0.5027 
     22 N          28.0257  -46.3919  -58.0697 N.am      10 UNK        -0.4495 
     23 C          27.8475  -45.9311  -59.3142 C.2       10 UNK         0.4903 
     24 O          28.7681  -45.7223  -60.1049 O.2       10 UNK        -0.4860 
     25 CA         26.3977  -45.6634  -59.7737 C.3       9 UNK         0.0227 
     26 CB         25.9588  -46.7166  -60.8051 C.3       9 UNK        -0.1964 
     27 N          25.4305  -45.6482  -58.6724 N.am      9 UNK        -0.4231 
     28 C          25.3106  -44.6740  -57.7588 C.2       9 UNK         0.5014 
     29 O          25.8868  -43.5889  -57.8402 O.2       9 UNK        -0.5270 
     30 CA         24.4118  -44.9575  -56.5357 C.3       8 UNK         0.0284 
     31 CB         23.1067  -44.1491  -56.6285 C.3       8 UNK        -0.1977 
     32 N          24.0828  -46.3749  -56.3178 N.am      8 UNK        -0.4342 
     33 C          24.9677  -47.3500  -56.0702 C.2       8 UNK         0.5039 
     34 O          26.1872  -47.1708  -56.0175 O.2       8 UNK        -0.5547 
     35 CA         24.4077  -48.7686  -55.9216 C.3       7 UNK         0.0281 
     36 CB         23.7951  -49.2667  -57.2470 C.3       7 UNK        -0.1963 
     37 N          25.5047  -49.6438  -55.5228 N.am      7 UNK        -0.4444 
     38 C          25.3938  -50.8555  -54.9714 C.2       7 UNK         0.5104 
     39 O          24.3163  -51.3930  -54.7121 O.2       7 UNK        -0.5100 
     40 CA         26.7007  -51.6110  -54.6714 C.3       6 UNK         0.0396 
     41 CB         26.9780  -52.6505  -55.7696 C.3       6 UNK        -0.1801 
     42 N          27.8756  -50.7445  -54.5370 N.am      6 UNK        -0.4747 
     43 C          28.1608  -49.9934  -53.4623 C.2       6 UNK         0.5012 
     44 O          27.4001  -49.8824  -52.4997 O.2       6 UNK        -0.5003 
     45 CA         29.5220  -49.2530  -53.4641 C.3       5 UNK         0.0782 
     46 C46        30.0507  -48.9726  -52.0300 C.3       11 UNK        -0.0868 
     47 S47        31.5829  -47.9741  -52.0093 S.3       11 UNK        -0.2515 
     48 C48        31.1434  -46.6051  -50.8842 C.3       11 UNK         0.0199 
     49 N          30.5111  -49.8980  -54.3413 N.am      5 UNK        -0.4607 
     50 C          31.0550  -51.1153  -54.1945 C.2       4 UNK         0.5031 
     51 O          30.8051  -51.8813  -53.2640 O.2       4 UNK        -0.5119 
     52 CA         32.0282  -51.5616  -55.2964 C.3       4 UNK         0.0263 
     53 CB         31.2598  -52.1637  -56.4845 C.3       4 UNK        -0.1967 
     54 N          32.8701  -50.4573  -55.7642 N.am      4 UNK        -0.4237 
     55 C          33.9662  -50.0319  -55.1215 C.2       3 UNK         0.4908 
     56 O          34.4014  -50.5715  -54.1029 O.2       3 UNK        -0.5102 
     57 CA         34.7173  -48.8202  -55.7064 C.3       3 UNK         0.0241 
     58 CB         34.2667  -48.4178  -57.1251 C.3       3 UNK        -0.1971 
     59 N          34.5779  -47.6777  -54.8026 N.am      3 UNK        -0.4139 
     60 C          35.3692  -47.4394  -53.7450 C.2       2 UNK         0.5016 
     61 O          36.3917  -48.0837  -53.5007 O.2       2 UNK        -0.5319 
     62 CA         34.9471  -46.3088  -52.7829 C.3       2 UNK         0.0286 
     63 CB         36.1425  -45.6624  -52.0497 C.3       2 UNK        -0.1963 
     64 N          34.0933  -45.2856  -53.3965 N.am      2 UNK        -0.4790 
     65 C          34.4243  -44.4286  -54.3736 C.2       1 UNK         0.5024 
     66 O          35.5322  -44.3736  -54.9130 O.2       1 UNK        -0.4888 
     67 H67        33.0613  -43.3673  -58.8340 H         1 UNK         0.0892 
     68 H68        33.3409  -45.0987  -59.0299 H         1 UNK         0.0892 
     69 H69        31.6955  -44.4863  -58.8385 H         1 UNK         0.0892 
     70 H70        33.3429  -42.5863  -56.7409 H         1 UNK         0.3107 
     71 H71        32.3634  -43.8503  -54.4319 H         1 UNK         0.0773 
     72 H72        34.3459  -41.5493  -54.7648 H         1 UNK         0.0680 
     73 H73        32.6246  -41.4096  -54.5438 H         1 UNK         0.0680 
     74 H74        32.1183  -41.5235  -50.7550 H         1 UNK         0.0650 
     75 H75        31.5981  -40.8422  -52.2768 H         1 UNK         0.0650 
     76 H76        32.3509  -44.1666  -50.6737 H         1 UNK         0.1397 
     77 H77        29.1766  -46.1810  -52.7460 H         1 UNK         0.1363 
     78 H78        29.9732  -42.0469  -53.5400 H         1 UNK         0.1355 
     79 H79        27.6070  -44.8537  -54.1059 H         1 UNK         0.0707 
     80 H80        27.8305  -43.1300  -54.2552 H         1 UNK         0.0707 
     81 H81        28.6314  -46.5852  -55.3656 H         1 UNK         0.1034 
     82 H82        30.3389  -46.2728  -55.5298 H         1 UNK         0.1034 
     83 H83        30.1131  -46.2073  -58.0026 H         1 UNK         0.0482 
     84 H84        28.0677  -48.7362  -58.5537 H         1 UNK         0.3460 
     85 H85        29.1300  -50.0384  -58.0867 H         1 UNK         0.3460 
     86 H86        27.2191  -46.5481  -57.4710 H         1 UNK         0.2989 
     87 H87        26.3837  -44.6843  -60.2569 H         1 UNK         0.0559 
     88 H88        25.9472  -47.7210  -60.3801 H         1 UNK         0.0848 
     89 H89        26.6373  -46.7332  -61.6593 H         1 UNK         0.0848 
     90 H90        24.9623  -46.5030  -61.1920 H         1 UNK         0.0848 
     91 H91        24.8960  -46.4914  -58.5276 H         1 UNK         0.3144 
     92 H92        24.9635  -44.6150  -55.6575 H         1 UNK         0.0727 
     93 H93        22.5079  -44.2541  -55.7236 H         1 UNK         0.0790 
     94 H94        22.4965  -44.4637  -57.4761 H         1 UNK         0.0790 
     95 H95        23.3135  -43.0852  -56.7538 H         1 UNK         0.0790 
     96 H96        23.1016  -46.6140  -56.3523 H         1 UNK         0.3215 
     97 H97        23.6495  -48.7601  -55.1356 H         1 UNK         0.0863 
     98 H98        23.4018  -50.2786  -57.1483 H         1 UNK         0.0808 
     99 H99        24.5312  -49.2755  -58.0520 H         1 UNK         0.0808 
    100 H100       22.9648  -48.6366  -57.5673 H         1 UNK         0.0808 
    101 H101       26.4209  -49.2302  -55.6470 H         1 UNK         0.3118 
    102 H102       26.5601  -52.1448  -53.7290 H         1 UNK         0.0546 
    103 H103       27.8572  -53.2511  -55.5357 H         1 UNK         0.0828 
    104 H104       27.1389  -52.1803  -56.7406 H         1 UNK         0.0828 
    105 H105       26.1381  -53.3384  -55.8769 H         1 UNK         0.0828 
    106 H106       28.5532  -50.7772  -55.2843 H         1 UNK         0.3005 
    107 H107       29.3126  -48.2875  -53.9211 H         1 UNK         0.1257 
    108 H108       29.2858  -48.4605  -51.4448 H         1 UNK         0.0775 
    109 H109       30.2486  -49.9080  -51.5043 H         1 UNK         0.0775 
    110 H110       30.3135  -46.8806  -50.2329 H         1 UNK         0.0840 
    111 H111       31.9934  -46.4401  -50.2202 H         1 UNK         0.0840 
    112 H112       30.7606  -49.3693  -55.1743 H         1 UNK         0.2987 
    113 H113       32.6665  -52.3442  -54.8799 H         1 UNK         0.0785 
    114 H114       31.9430  -52.5564  -57.2377 H         1 UNK         0.0798 
    115 H115       30.6165  -51.4289  -56.9683 H         1 UNK         0.0798 
    116 H116       30.6262  -52.9907  -56.1607 H         1 UNK         0.0798 
    117 H117       32.5331  -49.9282  -56.5589 H         1 UNK         0.3079 
    118 H118       35.7700  -49.1031  -55.7716 H         1 UNK         0.0794 
    119 H119       34.3880  -49.2434  -57.8276 H         1 UNK         0.0786 
    120 H120       34.8648  -47.5876  -57.5016 H         1 UNK         0.0786 
    121 H121       33.2241  -48.1039  -57.1559 H         1 UNK         0.0786 
    122 H122       33.7741  -47.0803  -54.9519 H         1 UNK         0.3032 
    123 H123       34.3331  -46.7934  -52.0228 H         1 UNK         0.1094 
    124 H124       36.6778  -46.3985  -51.4488 H         1 UNK         0.0794 
    125 H125       36.8610  -45.2302  -52.7466 H         1 UNK         0.0794 
    126 H126       35.8135  -44.8729  -51.3737 H         1 UNK         0.0794 
    127 H127       33.1468  -45.2467  -53.0405 H         1 UNK         0.3016 
@<TRIPOS>BOND
     1    1    2 1    
     2    1   67 1    
     3    1   68 1    
     4    1   69 1    
     5    2    3 2    
     6    2    4 am   BACKBONE|DICT|INTERRES
     7    4    5 1    
     8    4   70 1    
     9    5    6 1    
    10    5   65 1    
    11    5   71 1    
    12    6    7 1    
    13    6   72 1    
    14    6   73 1    
    15    7    8 1    
    16    8    9 1    
    17    8   74 1    
    18    8   75 1    
    19    9   10 ar   
    20    9   14 ar   
    21   10   11 ar   
    22   10   76 1    
    23   11   12 ar   
    24   11   48 1    
    25   12   13 ar   
    26   12   77 1    
    27   13   14 ar   
    28   13   15 1    
    29   14   78 1    
    30   15   16 1    
    31   15   79 1    
    32   15   80 1    
    33   16   17 1    
    34   17   18 1    
    35   17   81 1    
    36   17   82 1    
    37   18   19 1    
    38   18   22 1    
    39   18   83 1    
    40   19   20 am   BACKBONE|DICT|INTERRES
    41   19   21 2    
    42   20   84 1    
    43   20   85 1    
    44   22   23 am   BACKBONE|DICT|INTERRES
    45   22   86 1    
    46   23   24 2    
    47   23   25 1    
    48   25   26 1    
    49   25   27 1    
    50   25   87 1    
    51   26   88 1    
    52   26   89 1    
    53   26   90 1    
    54   27   28 am   BACKBONE|DICT|INTERRES
    55   27   91 1    
    56   28   29 2    
    57   28   30 1    
    58   30   31 1    
    59   30   32 1    
    60   30   92 1    
    61   31   93 1    
    62   31   94 1    
    63   31   95 1    
    64   32   33 am   BACKBONE|DICT|INTERRES
    65   32   96 1    
    66   33   34 2    
    67   33   35 1    
    68   35   36 1    
    69   35   37 1    
    70   35   97 1    
    71   36   98 1    
    72   36   99 1    
    73   36  100 1    
    74   37   38 am   BACKBONE|DICT|INTERRES
    75   37  101 1    
    76   38   39 2    
    77   38   40 1    
    78   40   41 1    
    79   40   42 1    
    80   40  102 1    
    81   41  103 1    
    82   41  104 1    
    83   41  105 1    
    84   42   43 am   BACKBONE|DICT|INTERRES
    85   42  106 1    
    86   43   44 2    
    87   43   45 1    
    88   45   46 1    
    89   45   49 1    
    90   45  107 1    
    91   46   47 1    
    92   46  108 1    
    93   46  109 1    
    94   47   48 1    
    95   48  110 1    
    96   48  111 1    
    97   49   50 am   BACKBONE|DICT|INTERRES
    98   49  112 1    
    99   50   51 2    
   100   50   52 1    
   101   52   53 1    
   102   52   54 1    
   103   52  113 1    
   104   53  114 1    
   105   53  115 1    
   106   53  116 1    
   107   54   55 am   BACKBONE|DICT|INTERRES
   108   54  117 1    
   109   55   56 2    
   110   55   57 1    
   111   57   58 1    
   112   57   59 1    
   113   57  118 1    
   114   58  119 1    
   115   58  120 1    
   116   58  121 1    
   117   59   60 am   BACKBONE|DICT|INTERRES
   118   59  122 1    
   119   60   61 2    
   120   60   62 1    
   121   62   63 1    
   122   62   64 1    
   123   62  123 1    
   124   63  124 1    
   125   63  125 1    
   126   63  126 1    
   127   64   65 am   BACKBONE|DICT|INTERRES
   128   64  127 1    
   129   65   66 2    
@<TRIPOS>SUBSTRUCTURE
     1 UNK         1 GROUP             0       ****    0 ROOT    
