@<TRIPOS>MOLECULE
3R134
127   129    1
SMALL
USER_CHARGES


@<TRIPOS>ATOM
      1 CA         39.1274  -44.7430  -54.8979 C.3       0 UNK        -0.1968 
      2 C          37.8968  -45.0817  -54.0691 C.2       0 UNK         0.4852 
      3 O          37.9450  -44.9767  -52.8427 O.2       0 UNK        -0.5359 
      4 N          36.8050  -45.4874  -54.7355 N.am      1 UNK        -0.4300 
      5 CA         35.5035  -45.8557  -54.1529 C.3       1 UNK         0.0863 
      6 C6         34.7519  -44.6658  -53.4914 C.3       11 UNK        -0.0953 
      7 S7         34.5344  -43.2668  -54.6402 S.3       11 UNK        -0.2369 
      8 C8         33.2978  -42.2595  -53.7608 C.3       11 UNK         0.0226 
      9 C9         31.8707  -42.7651  -53.9431 C.ar      11 UNK        -0.0699 
     10 C10        31.0604  -43.0109  -52.8285 C.ar      11 UNK        -0.0804 
     11 C11        29.7235  -43.3930  -52.9898 C.ar      11 UNK        -0.0871 
     12 C12        29.2080  -43.5547  -54.2779 C.ar      11 UNK        -0.1008 
     13 C13        30.0097  -43.3256  -55.3985 C.ar      11 UNK        -0.0735 
     14 C14        31.3365  -42.9232  -55.2268 C.ar      11 UNK        -0.0945 
     15 C15        29.4270  -43.5037  -56.7892 C.3       11 UNK         0.0169 
     16 S16        28.3076  -42.1306  -57.2065 S.3       11 UNK        -0.2669 
     17 C17        27.0861  -43.0288  -58.2146 C.3       11 UNK        -0.0850 
     18 CA         26.0297  -43.7694  -57.3337 C.3       10 UNK         0.0855 
     19 C          24.6947  -42.9837  -57.1564 C.2       10 UNK         0.5543 
     20 N          23.5510  -43.6493  -57.0498 N.am      10 UNK        -0.7343 
     21 O          24.6928  -41.7574  -57.0840 O.2       10 UNK        -0.5027 
     22 N          25.8827  -45.1808  -57.7206 N.am      10 UNK        -0.4495 
     23 C          25.4705  -45.6263  -58.9149 C.2       10 UNK         0.4903 
     24 O          25.0963  -44.8919  -59.8309 O.2       10 UNK        -0.4860 
     25 CA         25.5082  -47.1526  -59.1137 C.3       9 UNK         0.0227 
     26 CB         25.2861  -47.5798  -60.5799 C.3       9 UNK        -0.1964 
     27 N          26.7300  -47.7609  -58.5739 N.am      9 UNK        -0.4231 
     28 C          28.0038  -47.5130  -58.9238 C.2       9 UNK         0.5014 
     29 O          28.3329  -46.7097  -59.7975 O.2       9 UNK        -0.5270 
     30 CA         29.1119  -48.2798  -58.1703 C.3       8 UNK         0.0284 
     31 CB         29.9263  -47.3217  -57.2837 C.3       8 UNK        -0.1977 
     32 N          28.6095  -49.3723  -57.3347 N.am      8 UNK        -0.4342 
     33 C          28.0943  -50.5258  -57.7795 C.2       8 UNK         0.5039 
     34 O          28.0797  -50.8635  -58.9632 O.2       8 UNK        -0.5547 
     35 CA         27.4265  -51.4207  -56.7227 C.3       7 UNK         0.0281 
     36 CB         28.4624  -52.3271  -56.0369 C.3       7 UNK        -0.1963 
     37 N          26.7021  -50.6339  -55.7163 N.am      7 UNK        -0.4444 
     38 C          25.5624  -49.9660  -55.9504 C.2       7 UNK         0.5104 
     39 O          24.9811  -49.9698  -57.0344 O.2       7 UNK        -0.5100 
     40 CA         24.9881  -49.1245  -54.7975 C.3       6 UNK         0.0396 
     41 CB         24.1025  -49.9911  -53.8888 C.3       6 UNK        -0.1801 
     42 N          26.0266  -48.4763  -53.9943 N.am      6 UNK        -0.4747 
     43 C          26.7598  -47.4258  -54.3939 C.2       6 UNK         0.5012 
     44 O          26.6056  -46.8521  -55.4737 O.2       6 UNK        -0.5003 
     45 CA         27.8843  -46.9702  -53.4382 C.3       5 UNK         0.0782 
     46 C46        27.3510  -45.9285  -52.4243 C.3       11 UNK        -0.0868 
     47 S47        28.6515  -45.3202  -51.2913 S.3       11 UNK        -0.2515 
     48 C48        28.8222  -43.5743  -51.7759 C.3       11 UNK         0.0199 
     49 N          28.5507  -48.0919  -52.7611 N.am      5 UNK        -0.4607 
     50 C          29.1795  -49.0994  -53.3745 C.2       4 UNK         0.5031 
     51 O          29.1781  -49.2638  -54.5954 O.2       4 UNK        -0.5119 
     52 CA         29.8844  -50.1237  -52.4710 C.3       4 UNK         0.0263 
     53 CB         28.9128  -51.2516  -52.0864 C.3       4 UNK        -0.1967 
     54 N          31.0584  -50.7025  -53.1288 N.am      4 UNK        -0.4237 
     55 C          32.1476  -50.0045  -53.4755 C.2       3 UNK         0.4908 
     56 O          32.3159  -48.8125  -53.2055 O.2       3 UNK        -0.5102 
     57 CA         33.2024  -50.7579  -54.3013 C.3       3 UNK         0.0241 
     58 CB         32.8182  -50.7443  -55.7915 C.3       3 UNK        -0.1971 
     59 N          34.5192  -50.1408  -54.1429 N.am      3 UNK        -0.4139 
     60 C          35.3075  -50.2861  -53.0690 C.2       2 UNK         0.5016 
     61 O          35.0839  -51.0805  -52.1541 O.2       2 UNK        -0.5319 
     62 CA         36.5538  -49.3849  -53.0000 C.3       2 UNK         0.0286 
     63 CB         37.7781  -50.1070  -53.5859 C.3       2 UNK        -0.1963 
     64 N          36.3692  -48.1043  -53.6923 N.am      2 UNK        -0.4790 
     65 C          35.6187  -47.0911  -53.2299 C.2       1 UNK         0.5024 
     66 O          35.0551  -47.1098  -52.1342 O.2       1 UNK        -0.4888 
     67 H67        38.9500  -44.8712  -55.9655 H         1 UNK         0.0892 
     68 H68        39.4213  -43.7079  -54.7260 H         1 UNK         0.0892 
     69 H69        39.9600  -45.3858  -54.6131 H         1 UNK         0.0892 
     70 H70        36.8461  -45.5363  -55.7441 H         1 UNK         0.3107 
     71 H71        34.8885  -46.1874  -54.9912 H         1 UNK         0.0773 
     72 H72        33.7633  -44.9839  -53.1541 H         1 UNK         0.0680 
     73 H73        35.2831  -44.3116  -52.6065 H         1 UNK         0.0680 
     74 H74        33.3511  -41.2390  -54.1420 H         1 UNK         0.0650 
     75 H75        33.5664  -42.2057  -52.7046 H         1 UNK         0.0650 
     76 H76        31.4609  -42.8735  -51.8332 H         1 UNK         0.1397 
     77 H77        28.1743  -43.8373  -54.4159 H         1 UNK         0.1363 
     78 H78        31.9540  -42.7232  -56.0919 H         1 UNK         0.1355 
     79 H79        30.2142  -43.5707  -57.5418 H         1 UNK         0.0707 
     80 H80        28.8882  -44.4518  -56.8226 H         1 UNK         0.0707 
     81 H81        27.6339  -43.7269  -58.8507 H         1 UNK         0.1034 
     82 H82        26.6130  -42.3322  -58.9092 H         1 UNK         0.1034 
     83 H83        26.4192  -43.8381  -56.3175 H         1 UNK         0.0482 
     84 H84        23.5422  -44.6553  -57.0985 H         1 UNK         0.3460 
     85 H85        22.6904  -43.1396  -56.9259 H         1 UNK         0.3460 
     86 H86        26.1467  -45.8574  -57.0073 H         1 UNK         0.2989 
     87 H87        24.6828  -47.5556  -58.5252 H         1 UNK         0.0559 
     88 H88        26.0524  -47.1736  -61.2409 H         1 UNK         0.0848 
     89 H89        24.3209  -47.2294  -60.9475 H         1 UNK         0.0848 
     90 H90        25.2960  -48.6650  -60.6816 H         1 UNK         0.0848 
     91 H91        26.5790  -48.4369  -57.8376 H         1 UNK         0.3144 
     92 H92        29.7799  -48.7065  -58.9211 H         1 UNK         0.0727 
     93 H93        30.7519  -47.8389  -56.7940 H         1 UNK         0.0790 
     94 H94        29.3078  -46.8732  -56.5059 H         1 UNK         0.0790 
     95 H95        30.3553  -46.5093  -57.8716 H         1 UNK         0.0790 
     96 H96        28.6644  -49.2338  -56.3254 H         1 UNK         0.3215 
     97 H97        26.7047  -52.0594  -57.2371 H         1 UNK         0.0863 
     98 H98        29.2280  -51.7522  -55.5161 H         1 UNK         0.0808 
     99 H99        28.9726  -52.9539  -56.7696 H         1 UNK         0.0808 
    100 H100       27.9909  -52.9938  -55.3148 H         1 UNK         0.0808 
    101 H101       27.1506  -50.5195  -54.8193 H         1 UNK         0.3118 
    102 H102       24.3608  -48.3452  -55.2362 H         1 UNK         0.0546 
    103 H103       23.6260  -49.3928  -53.1120 H         1 UNK         0.0828 
    104 H104       24.6714  -50.7837  -53.4013 H         1 UNK         0.0828 
    105 H105       23.3057  -50.4677  -54.4616 H         1 UNK         0.0828 
    106 H106       26.2232  -48.8765  -53.0881 H         1 UNK         0.3005 
    107 H107       28.6409  -46.4841  -54.0583 H         1 UNK         0.1257 
    108 H108       26.5613  -46.3669  -51.8111 H         1 UNK         0.0775 
    109 H109       26.8886  -45.0865  -52.9414 H         1 UNK         0.0775 
    110 H110       27.8399  -43.1386  -51.9645 H         1 UNK         0.0840 
    111 H111       29.2304  -43.0227  -50.9276 H         1 UNK         0.0840 
    112 H112       28.6012  -48.0231  -51.7547 H         1 UNK         0.2987 
    113 H113       30.2203  -49.6186  -51.5627 H         1 UNK         0.0785 
    114 H114       29.3849  -51.9686  -51.4144 H         1 UNK         0.0798 
    115 H115       28.0373  -50.8569  -51.5691 H         1 UNK         0.0798 
    116 H116       28.5565  -51.7973  -52.9608 H         1 UNK         0.0798 
    117 H117       30.9862  -51.6674  -53.4156 H         1 UNK         0.3079 
    118 H118       33.2522  -51.7930  -53.9560 H         1 UNK         0.0794 
    119 H119       31.8509  -51.2224  -55.9528 H         1 UNK         0.0786 
    120 H120       33.5490  -51.2827  -56.3953 H         1 UNK         0.0786 
    121 H121       32.7435  -49.7276  -56.1802 H         1 UNK         0.0786 
    122 H122       34.7702  -49.4347  -54.8179 H         1 UNK         0.3032 
    123 H123       36.7498  -49.1807  -51.9446 H         1 UNK         0.1094 
    124 H124       37.6484  -50.3318  -54.6453 H         1 UNK         0.0794 
    125 H125       38.6821  -49.5075  -53.4767 H         1 UNK         0.0794 
    126 H126       37.9548  -51.0528  -53.0716 H         1 UNK         0.0794 
    127 H127       36.8325  -47.9939  -54.5831 H         1 UNK         0.3016 
@<TRIPOS>BOND
     1    1    2 1    
     2    1   67 1    
     3    1   68 1    
     4    1   69 1    
     5    2    3 2    
     6    2    4 am   BACKBONE|DICT|INTERRES
     7    4    5 1    
     8    4   70 1    
     9    5    6 1    
    10    5   65 1    
    11    5   71 1    
    12    6    7 1    
    13    6   72 1    
    14    6   73 1    
    15    7    8 1    
    16    8    9 1    
    17    8   74 1    
    18    8   75 1    
    19    9   10 ar   
    20    9   14 ar   
    21   10   11 ar   
    22   10   76 1    
    23   11   12 ar   
    24   11   48 1    
    25   12   13 ar   
    26   12   77 1    
    27   13   14 ar   
    28   13   15 1    
    29   14   78 1    
    30   15   16 1    
    31   15   79 1    
    32   15   80 1    
    33   16   17 1    
    34   17   18 1    
    35   17   81 1    
    36   17   82 1    
    37   18   19 1    
    38   18   22 1    
    39   18   83 1    
    40   19   20 am   BACKBONE|DICT|INTERRES
    41   19   21 2    
    42   20   84 1    
    43   20   85 1    
    44   22   23 am   BACKBONE|DICT|INTERRES
    45   22   86 1    
    46   23   24 2    
    47   23   25 1    
    48   25   26 1    
    49   25   27 1    
    50   25   87 1    
    51   26   88 1    
    52   26   89 1    
    53   26   90 1    
    54   27   28 am   BACKBONE|DICT|INTERRES
    55   27   91 1    
    56   28   29 2    
    57   28   30 1    
    58   30   31 1    
    59   30   32 1    
    60   30   92 1    
    61   31   93 1    
    62   31   94 1    
    63   31   95 1    
    64   32   33 am   BACKBONE|DICT|INTERRES
    65   32   96 1    
    66   33   34 2    
    67   33   35 1    
    68   35   36 1    
    69   35   37 1    
    70   35   97 1    
    71   36   98 1    
    72   36   99 1    
    73   36  100 1    
    74   37   38 am   BACKBONE|DICT|INTERRES
    75   37  101 1    
    76   38   39 2    
    77   38   40 1    
    78   40   41 1    
    79   40   42 1    
    80   40  102 1    
    81   41  103 1    
    82   41  104 1    
    83   41  105 1    
    84   42   43 am   BACKBONE|DICT|INTERRES
    85   42  106 1    
    86   43   44 2    
    87   43   45 1    
    88   45   46 1    
    89   45   49 1    
    90   45  107 1    
    91   46   47 1    
    92   46  108 1    
    93   46  109 1    
    94   47   48 1    
    95   48  110 1    
    96   48  111 1    
    97   49   50 am   BACKBONE|DICT|INTERRES
    98   49  112 1    
    99   50   51 2    
   100   50   52 1    
   101   52   53 1    
   102   52   54 1    
   103   52  113 1    
   104   53  114 1    
   105   53  115 1    
   106   53  116 1    
   107   54   55 am   BACKBONE|DICT|INTERRES
   108   54  117 1    
   109   55   56 2    
   110   55   57 1    
   111   57   58 1    
   112   57   59 1    
   113   57  118 1    
   114   58  119 1    
   115   58  120 1    
   116   58  121 1    
   117   59   60 am   BACKBONE|DICT|INTERRES
   118   59  122 1    
   119   60   61 2    
   120   60   62 1    
   121   62   63 1    
   122   62   64 1    
   123   62  123 1    
   124   63  124 1    
   125   63  125 1    
   126   63  126 1    
   127   64   65 am   BACKBONE|DICT|INTERRES
   128   64  127 1    
   129   65   66 2    
@<TRIPOS>SUBSTRUCTURE
     1 UNK         1 GROUP             0       ****    0 ROOT    
