@<TRIPOS>MOLECULE
3R134
127   129    1
SMALL
USER_CHARGES


@<TRIPOS>ATOM
      1 CA         32.1195  -47.3077  -48.4041 C.3       0 UNK        -0.1968 
      2 C          30.9643  -46.9980  -49.3532 C.2       0 UNK         0.4852 
      3 O          29.9703  -47.7214  -49.3458 O.2       0 UNK        -0.5359 
      4 N          31.0331  -45.9426  -50.1785 N.am      1 UNK        -0.4300 
      5 CA         32.1435  -44.9945  -50.3426 C.3       1 UNK         0.0863 
      6 C6         31.6713  -43.6972  -51.0512 C.3       11 UNK        -0.0953 
      7 S7         30.9834  -43.9604  -52.7259 S.3       11 UNK        -0.2369 
      8 C8         31.9804  -42.7970  -53.7054 C.3       11 UNK         0.0226 
      9 C9         31.9347  -43.1455  -55.1842 C.ar      11 UNK        -0.0699 
     10 C10        32.8413  -44.0737  -55.6979 C.ar      11 UNK        -0.0804 
     11 C11        32.8237  -44.4149  -57.0516 C.ar      11 UNK        -0.0871 
     12 C12        31.8939  -43.8075  -57.9004 C.ar      11 UNK        -0.1008 
     13 C13        30.9901  -42.8624  -57.4039 C.ar      11 UNK        -0.0735 
     14 C14        31.0131  -42.5369  -56.0418 C.ar      11 UNK        -0.0945 
     15 C15        30.0239  -42.1685  -58.3554 C.3       11 UNK         0.0169 
     16 S16        28.4678  -43.0926  -58.5659 S.3       11 UNK        -0.2669 
     17 C17        27.6261  -42.7377  -56.9873 C.3       11 UNK        -0.0850 
     18 CA         27.4851  -44.0070  -56.0943 C.3       10 UNK         0.0855 
     19 C          27.2224  -43.6674  -54.5923 C.2       10 UNK         0.5543 
     20 N          26.6957  -44.5892  -53.7963 N.am      10 UNK        -0.7343 
     21 O          27.5052  -42.5639  -54.1314 O.2       10 UNK        -0.5027 
     22 N          26.5468  -44.9980  -56.6642 N.am      10 UNK        -0.4495 
     23 C          25.2246  -44.8122  -56.8018 C.2       10 UNK         0.4903 
     24 O          24.6545  -43.7703  -56.4734 O.2       10 UNK        -0.4860 
     25 CA         24.3485  -45.9506  -57.3630 C.3       9 UNK         0.0227 
     26 CB         23.5429  -45.4873  -58.5956 C.3       9 UNK        -0.1964 
     27 N          25.0149  -47.2325  -57.6190 N.am      9 UNK        -0.4231 
     28 C          25.8919  -47.5612  -58.5763 C.2       9 UNK         0.5014 
     29 O          26.3513  -46.7588  -59.3896 O.2       9 UNK        -0.5270 
     30 CA         26.3037  -49.0516  -58.6370 C.3       8 UNK         0.0284 
     31 CB         27.4014  -49.3200  -59.6823 C.3       8 UNK        -0.1977 
     32 N          26.7392  -49.5740  -57.3369 N.am      8 UNK        -0.4342 
     33 C          25.9374  -49.8634  -56.3022 C.2       8 UNK         0.5039 
     34 O          24.7085  -49.7985  -56.3557 O.2       8 UNK        -0.5547 
     35 CA         26.6175  -50.1866  -54.9635 C.3       7 UNK         0.0281 
     36 CB         26.9781  -51.6776  -54.8646 C.3       7 UNK        -0.1963 
     37 N          27.8075  -49.3587  -54.7506 N.am      7 UNK        -0.4444 
     38 C          27.7722  -48.0379  -54.5157 C.2       7 UNK         0.5104 
     39 O          26.7324  -47.3903  -54.3914 O.2       7 UNK        -0.5100 
     40 CA         29.1253  -47.3129  -54.4295 C.3       6 UNK         0.0396 
     41 CB         29.6996  -47.4385  -53.0159 C.3       6 UNK        -0.1801 
     42 N          30.0915  -47.8070  -55.4143 N.am      6 UNK        -0.4747 
     43 C          29.9672  -47.6139  -56.7373 C.2       6 UNK         0.5012 
     44 O          29.0777  -46.9259  -57.2377 O.2       6 UNK        -0.5003 
     45 CA         30.9311  -48.3802  -57.6691 C.3       5 UNK         0.0782 
     46 C46        32.0470  -47.4929  -58.2690 C.3       11 UNK        -0.0868 
     47 S47        33.4114  -47.1230  -57.1198 S.3       11 UNK        -0.2515 
     48 C48        33.8327  -45.4173  -57.5906 C.3       11 UNK         0.0199 
     49 N          31.4394  -49.6290  -57.0887 N.am      5 UNK        -0.4607 
     50 C          30.6842  -50.7045  -56.8441 C.2       4 UNK         0.5031 
     51 O          29.4671  -50.7201  -57.0285 O.2       4 UNK        -0.5119 
     52 CA         31.3765  -51.9692  -56.3058 C.3       4 UNK         0.0263 
     53 CB         32.1295  -52.7049  -57.4314 C.3       4 UNK        -0.1967 
     54 N          32.2316  -51.7684  -55.1253 N.am      4 UNK        -0.4237 
     55 C          33.3760  -51.0782  -55.0190 C.2       3 UNK         0.4908 
     56 O          33.8947  -50.4419  -55.9382 O.2       3 UNK        -0.5102 
     57 CA         34.0833  -51.1434  -53.6542 C.3       3 UNK         0.0241 
     58 CB         35.3109  -52.0664  -53.7271 C.3       3 UNK        -0.1971 
     59 N          34.5009  -49.8163  -53.1979 N.am      3 UNK        -0.4139 
     60 C          33.6501  -48.8652  -52.7957 C.2       2 UNK         0.5016 
     61 O          32.4285  -49.0268  -52.7324 O.2       2 UNK        -0.5319 
     62 CA         34.2566  -47.5101  -52.4047 C.3       2 UNK         0.0286 
     63 CB         34.7706  -46.7659  -53.6491 C.3       2 UNK        -0.1963 
     64 N          33.2213  -46.7250  -51.7358 N.am      2 UNK        -0.4790 
     65 C          33.3941  -45.6092  -51.0163 C.2       1 UNK         0.5024 
     66 O          34.4904  -45.0760  -50.8440 O.2       1 UNK        -0.4888 
     67 H67        31.8204  -48.0643  -47.6789 H         1 UNK         0.0892 
     68 H68        32.4262  -46.4255  -47.8440 H         1 UNK         0.0892 
     69 H69        32.9775  -47.6969  -48.9510 H         1 UNK         0.0892 
     70 H70        30.2431  -45.7574  -50.7793 H         1 UNK         0.3107 
     71 H71        32.4610  -44.6938  -49.3428 H         1 UNK         0.0773 
     72 H72        30.8949  -43.2198  -50.4514 H         1 UNK         0.0680 
     73 H73        32.4869  -42.9730  -51.0896 H         1 UNK         0.0680 
     74 H74        31.6188  -41.7815  -53.5376 H         1 UNK         0.0650 
     75 H75        33.0161  -42.8195  -53.3624 H         1 UNK         0.0650 
     76 H76        33.5656  -44.5285  -55.0391 H         1 UNK         0.1397 
     77 H77        31.8800  -44.0584  -58.9523 H         1 UNK         0.1363 
     78 H78        30.3235  -41.8043  -55.6466 H         1 UNK         0.1355 
     79 H79        30.4936  -42.0580  -59.3340 H         1 UNK         0.0707 
     80 H80        29.8110  -41.1545  -58.0133 H         1 UNK         0.0707 
     81 H81        26.6521  -42.2975  -57.2016 H         1 UNK         0.1034 
     82 H82        28.1784  -41.9520  -56.4729 H         1 UNK         0.1034 
     83 H83        28.4604  -44.4936  -56.0863 H         1 UNK         0.0482 
     84 H84        26.5151  -45.5292  -54.1366 H         1 UNK         0.3460 
     85 H85        26.5257  -44.3633  -52.8300 H         1 UNK         0.3460 
     86 H86        26.9614  -45.8685  -56.9710 H         1 UNK         0.2989 
     87 H87        23.6265  -46.1692  -56.5750 H         1 UNK         0.0559 
     88 H88        22.8780  -46.2723  -58.9557 H         1 UNK         0.0848 
     89 H89        24.1945  -45.1933  -59.4190 H         1 UNK         0.0848 
     90 H90        22.9205  -44.6243  -58.3557 H         1 UNK         0.0848 
     91 H91        24.7319  -47.9950  -57.0065 H         1 UNK         0.3144 
     92 H92        25.4179  -49.6115  -58.9442 H         1 UNK         0.0727 
     93 H93        27.7113  -50.3653  -59.6814 H         1 UNK         0.0790 
     94 H94        28.2816  -48.7047  -59.5034 H         1 UNK         0.0790 
     95 H95        27.0452  -49.0873  -60.6866 H         1 UNK         0.0790 
     96 H96        27.7387  -49.6990  -57.2076 H         1 UNK         0.3215 
     97 H97        25.9044  -49.9596  -54.1675 H         1 UNK         0.0863 
     98 H98        27.4364  -51.9127  -53.9039 H         1 UNK         0.0808 
     99 H99        27.6657  -51.9886  -55.6506 H         1 UNK         0.0808 
    100 H100       26.0845  -52.2966  -54.9558 H         1 UNK         0.0808 
    101 H101       28.7042  -49.8022  -54.8867 H         1 UNK         0.3118 
    102 H102       28.9600  -46.2531  -54.6255 H         1 UNK         0.0546 
    103 H103       29.0273  -46.9889  -52.2842 H         1 UNK         0.0828 
    104 H104       30.6569  -46.9269  -52.9413 H         1 UNK         0.0828 
    105 H105       29.8465  -48.4792  -52.7249 H         1 UNK         0.0828 
    106 H106       30.8574  -48.3723  -55.0745 H         1 UNK         0.3005 
    107 H107       30.3144  -48.6810  -58.5171 H         1 UNK         0.1257 
    108 H108       31.6218  -46.5671  -58.6594 H         1 UNK         0.0775 
    109 H109       32.4824  -47.9983  -59.1323 H         1 UNK         0.0775 
    110 H110       34.8210  -45.1795  -57.1943 H         1 UNK         0.0840 
    111 H111       33.9167  -45.3459  -58.6762 H         1 UNK         0.0840 
    112 H112       32.4330  -49.6736  -56.8732 H         1 UNK         0.2987 
    113 H113       30.5765  -52.6323  -55.9718 H         1 UNK         0.0785 
    114 H114       32.9536  -52.1124  -57.8299 H         1 UNK         0.0798 
    115 H115       31.4612  -52.9291  -58.2641 H         1 UNK         0.0798 
    116 H116       32.5381  -53.6526  -57.0807 H         1 UNK         0.0798 
    117 H117       31.8961  -52.2264  -54.2887 H         1 UNK         0.3079 
    118 H118       33.3929  -51.5528  -52.9132 H         1 UNK         0.0794 
    119 H119       36.0505  -51.6994  -54.4402 H         1 UNK         0.0786 
    120 H120       35.0256  -53.0710  -54.0428 H         1 UNK         0.0786 
    121 H121       35.7972  -52.1592  -52.7558 H         1 UNK         0.0786 
    122 H122       35.4850  -49.6017  -53.2671 H         1 UNK         0.3032 
    123 H123       35.0781  -47.6836  -51.7061 H         1 UNK         0.1094 
    124 H124       33.9602  -46.6077  -54.3577 H         1 UNK         0.0794 
    125 H125       35.1958  -45.7944  -53.3977 H         1 UNK         0.0794 
    126 H126       35.5467  -47.3334  -54.1636 H         1 UNK         0.0794 
    127 H127       32.2988  -47.1383  -51.8069 H         1 UNK         0.3016 
@<TRIPOS>BOND
     1    1    2 1    
     2    1   67 1    
     3    1   68 1    
     4    1   69 1    
     5    2    3 2    
     6    2    4 am   BACKBONE|DICT|INTERRES
     7    4    5 1    
     8    4   70 1    
     9    5    6 1    
    10    5   65 1    
    11    5   71 1    
    12    6    7 1    
    13    6   72 1    
    14    6   73 1    
    15    7    8 1    
    16    8    9 1    
    17    8   74 1    
    18    8   75 1    
    19    9   10 ar   
    20    9   14 ar   
    21   10   11 ar   
    22   10   76 1    
    23   11   12 ar   
    24   11   48 1    
    25   12   13 ar   
    26   12   77 1    
    27   13   14 ar   
    28   13   15 1    
    29   14   78 1    
    30   15   16 1    
    31   15   79 1    
    32   15   80 1    
    33   16   17 1    
    34   17   18 1    
    35   17   81 1    
    36   17   82 1    
    37   18   19 1    
    38   18   22 1    
    39   18   83 1    
    40   19   20 am   BACKBONE|DICT|INTERRES
    41   19   21 2    
    42   20   84 1    
    43   20   85 1    
    44   22   23 am   BACKBONE|DICT|INTERRES
    45   22   86 1    
    46   23   24 2    
    47   23   25 1    
    48   25   26 1    
    49   25   27 1    
    50   25   87 1    
    51   26   88 1    
    52   26   89 1    
    53   26   90 1    
    54   27   28 am   BACKBONE|DICT|INTERRES
    55   27   91 1    
    56   28   29 2    
    57   28   30 1    
    58   30   31 1    
    59   30   32 1    
    60   30   92 1    
    61   31   93 1    
    62   31   94 1    
    63   31   95 1    
    64   32   33 am   BACKBONE|DICT|INTERRES
    65   32   96 1    
    66   33   34 2    
    67   33   35 1    
    68   35   36 1    
    69   35   37 1    
    70   35   97 1    
    71   36   98 1    
    72   36   99 1    
    73   36  100 1    
    74   37   38 am   BACKBONE|DICT|INTERRES
    75   37  101 1    
    76   38   39 2    
    77   38   40 1    
    78   40   41 1    
    79   40   42 1    
    80   40  102 1    
    81   41  103 1    
    82   41  104 1    
    83   41  105 1    
    84   42   43 am   BACKBONE|DICT|INTERRES
    85   42  106 1    
    86   43   44 2    
    87   43   45 1    
    88   45   46 1    
    89   45   49 1    
    90   45  107 1    
    91   46   47 1    
    92   46  108 1    
    93   46  109 1    
    94   47   48 1    
    95   48  110 1    
    96   48  111 1    
    97   49   50 am   BACKBONE|DICT|INTERRES
    98   49  112 1    
    99   50   51 2    
   100   50   52 1    
   101   52   53 1    
   102   52   54 1    
   103   52  113 1    
   104   53  114 1    
   105   53  115 1    
   106   53  116 1    
   107   54   55 am   BACKBONE|DICT|INTERRES
   108   54  117 1    
   109   55   56 2    
   110   55   57 1    
   111   57   58 1    
   112   57   59 1    
   113   57  118 1    
   114   58  119 1    
   115   58  120 1    
   116   58  121 1    
   117   59   60 am   BACKBONE|DICT|INTERRES
   118   59  122 1    
   119   60   61 2    
   120   60   62 1    
   121   62   63 1    
   122   62   64 1    
   123   62  123 1    
   124   63  124 1    
   125   63  125 1    
   126   63  126 1    
   127   64   65 am   BACKBONE|DICT|INTERRES
   128   64  127 1    
   129   65   66 2    
@<TRIPOS>SUBSTRUCTURE
     1 UNK         1 GROUP             0       ****    0 ROOT    
