@<TRIPOS>MOLECULE
3R134
127   129    1
SMALL
USER_CHARGES


@<TRIPOS>ATOM
      1 CA         33.4764  -45.4008  -48.9213 C.3       0 UNK        -0.1968 
      2 C          33.0349  -45.7661  -50.3310 C.2       0 UNK         0.4852 
      3 O          33.8094  -46.3666  -51.0773 O.2       0 UNK        -0.5359 
      4 N          31.7985  -45.4077  -50.6996 N.am      1 UNK        -0.4300 
      5 CA         31.1861  -45.6972  -51.9994 C.3       1 UNK         0.0863 
      6 C6         30.0747  -44.6768  -52.3579 C.3       11 UNK        -0.0953 
      7 S7         30.6828  -42.9556  -52.3555 S.3       11 UNK        -0.2369 
      8 C8         29.9187  -42.2629  -53.8629 C.3       11 UNK         0.0226 
      9 C9         30.4243  -42.8320  -55.1899 C.ar      11 UNK        -0.0699 
     10 C10        31.6840  -43.4307  -55.3202 C.ar      11 UNK        -0.0804 
     11 C11        32.1117  -43.9358  -56.5521 C.ar      11 UNK        -0.0871 
     12 C12        31.2883  -43.8000  -57.6731 C.ar      11 UNK        -0.1008 
     13 C13        30.0361  -43.1874  -57.5673 C.ar      11 UNK        -0.0735 
     14 C14        29.6116  -42.7131  -56.3223 C.ar      11 UNK        -0.0945 
     15 C15        29.1564  -42.9776  -58.7964 C.3       11 UNK         0.0169 
     16 S16        29.0066  -44.4367  -59.8837 S.3       11 UNK        -0.2669 
     17 C17        28.2603  -45.7059  -58.8040 C.3       11 UNK        -0.0850 
     18 CA         26.7216  -45.5516  -58.6652 C.3       10 UNK         0.0855 
     19 C          26.0093  -46.9160  -58.4171 C.2       10 UNK         0.5543 
     20 N          25.2154  -47.0876  -57.3661 N.am      10 UNK        -0.7343 
     21 O          26.1532  -47.8345  -59.2200 O.2       10 UNK        -0.5027 
     22 N          26.4014  -44.5271  -57.6643 N.am      10 UNK        -0.4495 
     23 C          25.3054  -43.7592  -57.6518 C.2       10 UNK         0.4903 
     24 O          24.4676  -43.7475  -58.5546 O.2       10 UNK        -0.4860 
     25 CA         25.1210  -42.8492  -56.4156 C.3       9 UNK         0.0227 
     26 CB         23.6387  -42.5169  -56.1408 C.3       9 UNK        -0.1964 
     27 N          25.7739  -43.3666  -55.2016 N.am      9 UNK        -0.4231 
     28 C          25.5439  -44.5498  -54.6129 C.2       9 UNK         0.5014 
     29 O          24.6734  -45.3459  -54.9748 O.2       9 UNK        -0.5270 
     30 CA         26.4693  -44.9131  -53.4394 C.3       8 UNK         0.0284 
     31 CB         25.8547  -44.4729  -52.1018 C.3       8 UNK        -0.1977 
     32 N          26.7452  -46.3510  -53.3978 N.am      8 UNK        -0.4342 
     33 C          27.3928  -47.0329  -54.3522 C.2       8 UNK         0.5039 
     34 O          27.9438  -46.5016  -55.3201 O.2       8 UNK        -0.5547 
     35 CA         27.3974  -48.5617  -54.2061 C.3       7 UNK         0.0281 
     36 CB         25.9675  -49.1378  -54.2858 C.3       7 UNK        -0.1963 
     37 N          28.2314  -49.1491  -55.2518 N.am      7 UNK        -0.4444 
     38 C          28.7082  -50.3980  -55.2620 C.2       7 UNK         0.5104 
     39 O          28.5330  -51.2026  -54.3464 O.2       7 UNK        -0.5100 
     40 CA         29.5476  -50.8274  -56.4771 C.3       6 UNK         0.0396 
     41 CB         28.7094  -50.8891  -57.7708 C.3       6 UNK        -0.1801 
     42 N          30.7682  -50.0285  -56.6278 N.am      6 UNK        -0.4747 
     43 C          30.8788  -48.7396  -56.9844 C.2       6 UNK         0.5012 
     44 O          29.9297  -48.0683  -57.3829 O.2       6 UNK        -0.5003 
     45 CA         32.2530  -48.0571  -56.8195 C.3       5 UNK         0.0782 
     46 C46        32.1490  -46.9835  -55.7119 C.3       11 UNK        -0.0868 
     47 S47        33.6739  -46.0079  -55.4841 S.3       11 UNK        -0.2515 
     48 C48        33.4568  -44.6426  -56.6781 C.3       11 UNK         0.0199 
     49 N          33.3213  -49.0240  -56.5432 N.am      5 UNK        -0.4607 
     50 C          33.9545  -49.7389  -57.4825 C.2       4 UNK         0.5031 
     51 O          33.7585  -49.6012  -58.6900 O.2       4 UNK        -0.5119 
     52 CA         34.9557  -50.8076  -57.0028 C.3       4 UNK         0.0263 
     53 CB         36.3849  -50.2420  -57.0066 C.3       4 UNK        -0.1967 
     54 N          34.6543  -51.3488  -55.6733 N.am      4 UNK        -0.4237 
     55 C          33.5421  -52.0220  -55.3459 C.2       3 UNK         0.4908 
     56 O          32.6520  -52.3014  -56.1485 O.2       3 UNK        -0.5102 
     57 CA         33.3545  -52.4086  -53.8682 C.3       3 UNK         0.0241 
     58 CB         34.6728  -52.4609  -53.0617 C.3       3 UNK        -0.1971 
     59 N          32.3738  -51.5413  -53.2008 N.am      3 UNK        -0.4139 
     60 C          32.4308  -50.2062  -53.0812 C.2       2 UNK         0.5016 
     61 O          33.3176  -49.5079  -53.5828 O.2       2 UNK        -0.5319 
     62 CA         31.3182  -49.5408  -52.2566 C.3       2 UNK         0.0286 
     63 CB         31.2556  -50.0967  -50.8195 C.3       2 UNK        -0.1963 
     64 N          31.5686  -48.1032  -52.2121 N.am      2 UNK        -0.4790 
     65 C          30.6626  -47.1476  -51.9926 C.2       1 UNK         0.5024 
     66 O          29.4782  -47.3783  -51.7467 O.2       1 UNK        -0.4888 
     67 H67        32.6832  -44.9063  -48.3591 H         1 UNK         0.0892 
     68 H68        34.3346  -44.7289  -48.9590 H         1 UNK         0.0892 
     69 H69        33.7689  -46.2984  -48.3778 H         1 UNK         0.0892 
     70 H70        31.2047  -44.9234  -50.0417 H         1 UNK         0.3107 
     71 H71        31.9535  -45.6247  -52.7740 H         1 UNK         0.0773 
     72 H72        29.6736  -44.9124  -53.3452 H         1 UNK         0.0680 
     73 H73        29.2386  -44.7394  -51.6588 H         1 UNK         0.0680 
     74 H74        28.8390  -42.3947  -53.7872 H         1 UNK         0.0650 
     75 H75        30.0968  -41.1870  -53.8673 H         1 UNK         0.0650 
     76 H76        32.3365  -43.5236  -54.4639 H         1 UNK         0.1397 
     77 H77        31.6206  -44.1702  -58.6333 H         1 UNK         0.1363 
     78 H78        28.6506  -42.2250  -56.2385 H         1 UNK         0.1355 
     79 H79        29.5836  -42.1623  -59.3814 H         1 UNK         0.0707 
     80 H80        28.1581  -42.6462  -58.5106 H         1 UNK         0.0707 
     81 H81        28.7475  -45.7053  -57.8271 H         1 UNK         0.1034 
     82 H82        28.5181  -46.6676  -59.2518 H         1 UNK         0.1034 
     83 H83        26.3341  -45.2137  -59.6282 H         1 UNK         0.0482 
     84 H84        24.7480  -47.9710  -57.2497 H         1 UNK         0.3460 
     85 H85        25.0858  -46.3540  -56.6783 H         1 UNK         0.3460 
     86 H86        27.0084  -44.5165  -56.8573 H         1 UNK         0.2989 
     87 H87        25.6278  -41.9135  -56.6562 H         1 UNK         0.0559 
     88 H88        23.0490  -43.4162  -55.9596 H         1 UNK         0.0848 
     89 H89        23.1882  -42.0002  -56.9892 H         1 UNK         0.0848 
     90 H90        23.5312  -41.8652  -55.2739 H         1 UNK         0.0848 
     91 H91        26.4939  -42.7745  -54.8124 H         1 UNK         0.3144 
     92 H92        27.4189  -44.3950  -53.5754 H         1 UNK         0.0727 
     93 H93        26.5211  -44.6929  -51.2673 H         1 UNK         0.0790 
     94 H94        24.9021  -44.9699  -51.9129 H         1 UNK         0.0790 
     95 H95        25.6688  -43.3980  -52.0910 H         1 UNK         0.0790 
     96 H96        26.3147  -46.8679  -52.6457 H         1 UNK         0.3215 
     97 H97        27.8318  -48.8051  -53.2350 H         1 UNK         0.0863 
     98 H98        25.9603  -50.2166  -54.1306 H         1 UNK         0.0808 
     99 H99        25.5112  -48.9394  -55.2551 H         1 UNK         0.0808 
    100 H100       25.3161  -48.7066  -53.5253 H         1 UNK         0.0808 
    101 H101       28.4959  -48.5066  -55.9973 H         1 UNK         0.3118 
    102 H102       29.8937  -51.8425  -56.2763 H         1 UNK         0.0546 
    103 H103       27.8885  -51.5988  -57.6625 H         1 UNK         0.0828 
    104 H104       29.3123  -51.2178  -58.6170 H         1 UNK         0.0828 
    105 H105       28.2652  -49.9275  -58.0295 H         1 UNK         0.0828 
    106 H106       31.6159  -50.5161  -56.3590 H         1 UNK         0.3005 
    107 H107       32.4660  -47.5508  -57.7638 H         1 UNK         0.1257 
    108 H108       31.9266  -47.4619  -54.7606 H         1 UNK         0.0775 
    109 H109       31.3075  -46.3135  -55.8941 H         1 UNK         0.0775 
    110 H110       34.2551  -43.9143  -56.5302 H         1 UNK         0.0840 
    111 H111       33.5900  -45.0429  -57.6843 H         1 UNK         0.0840 
    112 H112       33.5374  -49.1828  -55.5630 H         1 UNK         0.2987 
    113 H113       34.9119  -51.6358  -57.7134 H         1 UNK         0.0785 
    114 H114       36.4956  -49.4211  -56.2967 H         1 UNK         0.0798 
    115 H115       36.6497  -49.8576  -57.9927 H         1 UNK         0.0798 
    116 H116       37.1172  -51.0088  -56.7528 H         1 UNK         0.0798 
    117 H117       35.3047  -51.1248  -54.9338 H         1 UNK         0.3079 
    118 H118       32.9320  -53.4147  -53.8698 H         1 UNK         0.0794 
    119 H119       35.1289  -51.4780  -52.9386 H         1 UNK         0.0786 
    120 H120       35.4048  -53.1100  -53.5444 H         1 UNK         0.0786 
    121 H121       34.5001  -52.8647  -52.0640 H         1 UNK         0.0786 
    122 H122       31.5832  -52.0216  -52.7937 H         1 UNK         0.3032 
    123 H123       30.3684  -49.7230  -52.7634 H         1 UNK         0.1094 
    124 H124       30.4824  -49.5990  -50.2338 H         1 UNK         0.0794 
    125 H125       31.0212  -51.1615  -50.8100 H         1 UNK         0.0794 
    126 H126       32.2044  -49.9640  -50.2978 H         1 UNK         0.0794 
    127 H127       32.5334  -47.8421  -52.3941 H         1 UNK         0.3016 
@<TRIPOS>BOND
     1    1    2 1    
     2    1   67 1    
     3    1   68 1    
     4    1   69 1    
     5    2    3 2    
     6    2    4 am   BACKBONE|DICT|INTERRES
     7    4    5 1    
     8    4   70 1    
     9    5    6 1    
    10    5   65 1    
    11    5   71 1    
    12    6    7 1    
    13    6   72 1    
    14    6   73 1    
    15    7    8 1    
    16    8    9 1    
    17    8   74 1    
    18    8   75 1    
    19    9   10 ar   
    20    9   14 ar   
    21   10   11 ar   
    22   10   76 1    
    23   11   12 ar   
    24   11   48 1    
    25   12   13 ar   
    26   12   77 1    
    27   13   14 ar   
    28   13   15 1    
    29   14   78 1    
    30   15   16 1    
    31   15   79 1    
    32   15   80 1    
    33   16   17 1    
    34   17   18 1    
    35   17   81 1    
    36   17   82 1    
    37   18   19 1    
    38   18   22 1    
    39   18   83 1    
    40   19   20 am   BACKBONE|DICT|INTERRES
    41   19   21 2    
    42   20   84 1    
    43   20   85 1    
    44   22   23 am   BACKBONE|DICT|INTERRES
    45   22   86 1    
    46   23   24 2    
    47   23   25 1    
    48   25   26 1    
    49   25   27 1    
    50   25   87 1    
    51   26   88 1    
    52   26   89 1    
    53   26   90 1    
    54   27   28 am   BACKBONE|DICT|INTERRES
    55   27   91 1    
    56   28   29 2    
    57   28   30 1    
    58   30   31 1    
    59   30   32 1    
    60   30   92 1    
    61   31   93 1    
    62   31   94 1    
    63   31   95 1    
    64   32   33 am   BACKBONE|DICT|INTERRES
    65   32   96 1    
    66   33   34 2    
    67   33   35 1    
    68   35   36 1    
    69   35   37 1    
    70   35   97 1    
    71   36   98 1    
    72   36   99 1    
    73   36  100 1    
    74   37   38 am   BACKBONE|DICT|INTERRES
    75   37  101 1    
    76   38   39 2    
    77   38   40 1    
    78   40   41 1    
    79   40   42 1    
    80   40  102 1    
    81   41  103 1    
    82   41  104 1    
    83   41  105 1    
    84   42   43 am   BACKBONE|DICT|INTERRES
    85   42  106 1    
    86   43   44 2    
    87   43   45 1    
    88   45   46 1    
    89   45   49 1    
    90   45  107 1    
    91   46   47 1    
    92   46  108 1    
    93   46  109 1    
    94   47   48 1    
    95   48  110 1    
    96   48  111 1    
    97   49   50 am   BACKBONE|DICT|INTERRES
    98   49  112 1    
    99   50   51 2    
   100   50   52 1    
   101   52   53 1    
   102   52   54 1    
   103   52  113 1    
   104   53  114 1    
   105   53  115 1    
   106   53  116 1    
   107   54   55 am   BACKBONE|DICT|INTERRES
   108   54  117 1    
   109   55   56 2    
   110   55   57 1    
   111   57   58 1    
   112   57   59 1    
   113   57  118 1    
   114   58  119 1    
   115   58  120 1    
   116   58  121 1    
   117   59   60 am   BACKBONE|DICT|INTERRES
   118   59  122 1    
   119   60   61 2    
   120   60   62 1    
   121   62   63 1    
   122   62   64 1    
   123   62  123 1    
   124   63  124 1    
   125   63  125 1    
   126   63  126 1    
   127   64   65 am   BACKBONE|DICT|INTERRES
   128   64  127 1    
   129   65   66 2    
@<TRIPOS>SUBSTRUCTURE
     1 UNK         1 GROUP             0       ****    0 ROOT    
