@<TRIPOS>MOLECULE
3R134
127   129    1
SMALL
USER_CHARGES


@<TRIPOS>ATOM
      1 CA         37.2931  -45.8723  -52.5260 C.3       0 UNK        -0.1968 
      2 C          35.8364  -45.6807  -52.9219 C.2       0 UNK         0.4852 
      3 O          35.1543  -46.6613  -53.2163 O.2       0 UNK        -0.5359 
      4 N          35.3661  -44.4266  -52.9354 N.am      1 UNK        -0.4300 
      5 CA         33.9942  -44.0171  -53.2520 C.3       1 UNK         0.0863 
      6 C6         33.9055  -42.4757  -53.4151 C.3       11 UNK        -0.0953 
      7 S7         34.6970  -41.9134  -54.9627 S.3       11 UNK        -0.2369 
      8 C8         33.2584  -41.6338  -56.0512 C.3       11 UNK         0.0226 
      9 C9         32.4174  -42.8928  -56.1993 C.ar      11 UNK        -0.0699 
     10 C10        32.8037  -43.9035  -57.0864 C.ar      11 UNK        -0.0804 
     11 C11        32.0809  -45.0986  -57.1519 C.ar      11 UNK        -0.0871 
     12 C12        30.9761  -45.2765  -56.3146 C.ar      11 UNK        -0.1008 
     13 C13        30.5667  -44.2662  -55.4441 C.ar      11 UNK        -0.0735 
     14 C14        31.2773  -43.0662  -55.4077 C.ar      11 UNK        -0.0945 
     15 C15        29.3984  -44.4980  -54.5008 C.3       11 UNK         0.0169 
     16 S16        27.7906  -44.3556  -55.3356 S.3       11 UNK        -0.2669 
     17 C17        26.6946  -44.7012  -53.9188 C.3       11 UNK        -0.0850 
     18 CA         26.4182  -46.2153  -53.7195 C.3       10 UNK         0.0855 
     19 C          25.7673  -46.4700  -52.3282 C.2       10 UNK         0.5543 
     20 N          24.5149  -46.9016  -52.2441 N.am      10 UNK        -0.7343 
     21 O          26.4182  -46.2715  -51.3058 O.2       10 UNK        -0.5027 
     22 N          25.6907  -46.7858  -54.8648 N.am      10 UNK        -0.4495 
     23 C          25.5321  -48.0890  -55.1180 C.2       10 UNK         0.4903 
     24 O          26.0104  -48.9829  -54.4212 O.2       10 UNK        -0.4860 
     25 CA         24.7063  -48.4774  -56.3593 C.3       9 UNK         0.0227 
     26 CB         23.1977  -48.4677  -56.0448 C.3       9 UNK        -0.1964 
     27 N          25.0136  -47.7060  -57.5734 N.am      9 UNK        -0.4231 
     28 C          24.8193  -46.4028  -57.8304 C.2       9 UNK         0.5014 
     29 O          24.2886  -45.6196  -57.0404 O.2       9 UNK        -0.5270 
     30 CA         25.3564  -45.8946  -59.1806 C.3       8 UNK         0.0284 
     31 CB         25.4786  -44.3600  -59.2290 C.3       8 UNK        -0.1977 
     32 N          26.6726  -46.4835  -59.4175 N.am      8 UNK        -0.4342 
     33 C          27.0187  -47.3094  -60.4077 C.2       8 UNK         0.5039 
     34 O          26.2726  -47.6201  -61.3364 O.2       8 UNK        -0.5547 
     35 CA         28.4269  -47.9300  -60.3242 C.3       7 UNK         0.0281 
     36 CB         29.5241  -46.8720  -60.5611 C.3       7 UNK        -0.1963 
     37 N          28.6763  -48.6981  -59.0912 N.am      7 UNK        -0.4444 
     38 C          28.7171  -48.2584  -57.8241 C.2       7 UNK         0.5104 
     39 O          28.5190  -47.0889  -57.5036 O.2       7 UNK        -0.5100 
     40 CA         28.9933  -49.2831  -56.7120 C.3       6 UNK         0.0396 
     41 CB         28.6395  -50.7378  -57.0952 C.3       6 UNK        -0.1801 
     42 N          30.3633  -49.1770  -56.2026 N.am      6 UNK        -0.4747 
     43 C          31.5050  -49.4191  -56.8672 C.2       6 UNK         0.5012 
     44 O          31.5548  -49.7593  -58.0497 O.2       6 UNK        -0.5003 
     45 CA         32.8112  -49.3120  -56.0523 C.3       5 UNK         0.0782 
     46 C46        33.3561  -47.8645  -55.9797 C.3       11 UNK        -0.0868 
     47 S47        33.9284  -47.1620  -57.5638 S.3       11 UNK        -0.2515 
     48 C48        32.4830  -46.1994  -58.1249 C.3       11 UNK         0.0199 
     49 N          32.5962  -49.8437  -54.7039 N.am      5 UNK        -0.4607 
     50 C          32.6017  -51.1433  -54.3779 C.2       4 UNK         0.5031 
     51 O          32.9242  -52.0409  -55.1561 O.2       4 UNK        -0.5119 
     52 CA         32.1641  -51.5079  -52.9451 C.3       4 UNK         0.0263 
     53 CB         33.3794  -51.5388  -52.0044 C.3       4 UNK        -0.1967 
     54 N          31.1582  -50.5879  -52.4055 N.am      4 UNK        -0.4237 
     55 C          29.8915  -50.4998  -52.8394 C.2       3 UNK         0.4908 
     56 O          29.3925  -51.2956  -53.6335 O.2       3 UNK        -0.5102 
     57 CA         29.0389  -49.3165  -52.3318 C.3       3 UNK         0.0241 
     58 CB         27.9958  -49.8014  -51.3123 C.3       3 UNK        -0.1971 
     59 N          29.8025  -48.2037  -51.7481 N.am      3 UNK        -0.4139 
     60 C          30.7211  -47.4743  -52.3956 C.2       2 UNK         0.5016 
     61 O          31.0278  -47.6670  -53.5757 O.2       2 UNK        -0.5319 
     62 CA         31.4539  -46.4001  -51.5779 C.3       2 UNK         0.0286 
     63 CB         32.2621  -47.0469  -50.4314 C.3       2 UNK        -0.1963 
     64 N          32.3516  -45.6635  -52.4660 N.am      2 UNK        -0.4790 
     65 C          33.0117  -44.5351  -52.1798 C.2       1 UNK         0.5024 
     66 O          32.8932  -43.9228  -51.1164 O.2       1 UNK        -0.4888 
     67 H67        37.7837  -44.9257  -52.2999 H         1 UNK         0.0892 
     68 H68        37.3605  -46.5087  -51.6441 H         1 UNK         0.0892 
     69 H69        37.8407  -46.3531  -53.3361 H         1 UNK         0.0892 
     70 H70        35.9853  -43.6715  -52.6790 H         1 UNK         0.3107 
     71 H71        33.7193  -44.4821  -54.2014 H         1 UNK         0.0773 
     72 H72        34.3919  -41.9730  -52.5772 H         1 UNK         0.0680 
     73 H73        32.8729  -42.1273  -53.3951 H         1 UNK         0.0680 
     74 H74        33.6112  -41.3079  -57.0307 H         1 UNK         0.0650 
     75 H75        32.6585  -40.8142  -55.6523 H         1 UNK         0.0650 
     76 H76        33.6805  -43.7709  -57.7055 H         1 UNK         0.1397 
     77 H77        30.4385  -46.2117  -56.3229 H         1 UNK         0.1363 
     78 H78        30.9697  -42.2849  -54.7265 H         1 UNK         0.1355 
     79 H79        29.4407  -43.7970  -53.6657 H         1 UNK         0.0707 
     80 H80        29.4799  -45.4949  -54.0709 H         1 UNK         0.0707 
     81 H81        27.1401  -44.2613  -53.0240 H         1 UNK         0.1034 
     82 H82        25.7560  -44.1656  -54.0726 H         1 UNK         0.1034 
     83 H83        27.3832  -46.7239  -53.6818 H         1 UNK         0.0482 
     84 H84        24.1075  -47.0642  -51.3369 H         1 UNK         0.3460 
     85 H85        23.9762  -47.0672  -53.0785 H         1 UNK         0.3460 
     86 H86        25.2547  -46.1270  -55.5047 H         1 UNK         0.2989 
     87 H87        24.9785  -49.5068  -56.5984 H         1 UNK         0.0559 
     88 H88        22.9727  -49.1219  -55.2015 H         1 UNK         0.0848 
     89 H89        22.6137  -48.8231  -56.8937 H         1 UNK         0.0848 
     90 H90        22.8380  -47.4717  -55.7853 H         1 UNK         0.0848 
     91 H91        25.4744  -48.2343  -58.3007 H         1 UNK         0.3144 
     92 H92        24.6488  -46.2115  -59.9493 H         1 UNK         0.0727 
     93 H93        25.8718  -44.0249  -60.1889 H         1 UNK         0.0790 
     94 H94        26.1401  -43.9853  -58.4464 H         1 UNK         0.0790 
     95 H95        24.5066  -43.8842  -59.0933 H         1 UNK         0.0790 
     96 H96        27.3493  -46.3843  -58.6585 H         1 UNK         0.3215 
     97 H97        28.4961  -48.6518  -61.1399 H         1 UNK         0.0863 
     98 H98        30.5113  -47.3321  -60.6021 H         1 UNK         0.0808 
     99 H99        29.5426  -46.1114  -59.7798 H         1 UNK         0.0808 
    100 H100       29.3681  -46.3564  -61.5096 H         1 UNK         0.0808 
    101 H101       28.8569  -49.6822  -59.2343 H         1 UNK         0.3118 
    102 H102       28.3485  -49.0059  -55.8777 H         1 UNK         0.0546 
    103 H103       29.2780  -51.1356  -57.8839 H         1 UNK         0.0828 
    104 H104       28.7373  -51.3997  -56.2352 H         1 UNK         0.0828 
    105 H105       27.6057  -50.8127  -57.4349 H         1 UNK         0.0828 
    106 H106       30.4484  -48.8358  -55.2513 H         1 UNK         0.3005 
    107 H107       33.5595  -49.9304  -56.5536 H         1 UNK         0.1257 
    108 H108       34.2254  -47.8568  -55.3222 H         1 UNK         0.0775 
    109 H109       32.6399  -47.1970  -55.5068 H         1 UNK         0.0775 
    110 H110       32.7148  -45.7543  -59.0935 H         1 UNK         0.0840 
    111 H111       31.6450  -46.8743  -58.3023 H         1 UNK         0.0840 
    112 H112       32.2725  -49.1686  -54.0203 H         1 UNK         0.2987 
    113 H113       31.7282  -52.5090  -52.9766 H         1 UNK         0.0785 
    114 H114       34.1353  -52.2363  -52.3683 H         1 UNK         0.0798 
    115 H115       33.0981  -51.8628  -51.0022 H         1 UNK         0.0798 
    116 H116       33.8532  -50.5595  -51.9219 H         1 UNK         0.0798 
    117 H117       31.4768  -49.9121  -51.7276 H         1 UNK         0.3079 
    118 H118       28.5059  -48.9224  -53.1993 H         1 UNK         0.0794 
    119 H119       27.3217  -48.9961  -51.0198 H         1 UNK         0.0786 
    120 H120       28.4644  -50.1957  -50.4098 H         1 UNK         0.0786 
    121 H121       27.3784  -50.5954  -51.7352 H         1 UNK         0.0786 
    122 H122       29.6048  -47.9878  -50.7811 H         1 UNK         0.3032 
    123 H123       30.7111  -45.7101  -51.1720 H         1 UNK         0.1094 
    124 H124       33.0254  -47.7260  -50.8145 H         1 UNK         0.0794 
    125 H125       32.7659  -46.2970  -49.8219 H         1 UNK         0.0794 
    126 H126       31.6230  -47.6167  -49.7563 H         1 UNK         0.0794 
    127 H127       32.4924  -46.1132  -53.3634 H         1 UNK         0.3016 
@<TRIPOS>BOND
     1    1    2 1    
     2    1   67 1    
     3    1   68 1    
     4    1   69 1    
     5    2    3 2    
     6    2    4 am   BACKBONE|DICT|INTERRES
     7    4    5 1    
     8    4   70 1    
     9    5    6 1    
    10    5   65 1    
    11    5   71 1    
    12    6    7 1    
    13    6   72 1    
    14    6   73 1    
    15    7    8 1    
    16    8    9 1    
    17    8   74 1    
    18    8   75 1    
    19    9   10 ar   
    20    9   14 ar   
    21   10   11 ar   
    22   10   76 1    
    23   11   12 ar   
    24   11   48 1    
    25   12   13 ar   
    26   12   77 1    
    27   13   14 ar   
    28   13   15 1    
    29   14   78 1    
    30   15   16 1    
    31   15   79 1    
    32   15   80 1    
    33   16   17 1    
    34   17   18 1    
    35   17   81 1    
    36   17   82 1    
    37   18   19 1    
    38   18   22 1    
    39   18   83 1    
    40   19   20 am   BACKBONE|DICT|INTERRES
    41   19   21 2    
    42   20   84 1    
    43   20   85 1    
    44   22   23 am   BACKBONE|DICT|INTERRES
    45   22   86 1    
    46   23   24 2    
    47   23   25 1    
    48   25   26 1    
    49   25   27 1    
    50   25   87 1    
    51   26   88 1    
    52   26   89 1    
    53   26   90 1    
    54   27   28 am   BACKBONE|DICT|INTERRES
    55   27   91 1    
    56   28   29 2    
    57   28   30 1    
    58   30   31 1    
    59   30   32 1    
    60   30   92 1    
    61   31   93 1    
    62   31   94 1    
    63   31   95 1    
    64   32   33 am   BACKBONE|DICT|INTERRES
    65   32   96 1    
    66   33   34 2    
    67   33   35 1    
    68   35   36 1    
    69   35   37 1    
    70   35   97 1    
    71   36   98 1    
    72   36   99 1    
    73   36  100 1    
    74   37   38 am   BACKBONE|DICT|INTERRES
    75   37  101 1    
    76   38   39 2    
    77   38   40 1    
    78   40   41 1    
    79   40   42 1    
    80   40  102 1    
    81   41  103 1    
    82   41  104 1    
    83   41  105 1    
    84   42   43 am   BACKBONE|DICT|INTERRES
    85   42  106 1    
    86   43   44 2    
    87   43   45 1    
    88   45   46 1    
    89   45   49 1    
    90   45  107 1    
    91   46   47 1    
    92   46  108 1    
    93   46  109 1    
    94   47   48 1    
    95   48  110 1    
    96   48  111 1    
    97   49   50 am   BACKBONE|DICT|INTERRES
    98   49  112 1    
    99   50   51 2    
   100   50   52 1    
   101   52   53 1    
   102   52   54 1    
   103   52  113 1    
   104   53  114 1    
   105   53  115 1    
   106   53  116 1    
   107   54   55 am   BACKBONE|DICT|INTERRES
   108   54  117 1    
   109   55   56 2    
   110   55   57 1    
   111   57   58 1    
   112   57   59 1    
   113   57  118 1    
   114   58  119 1    
   115   58  120 1    
   116   58  121 1    
   117   59   60 am   BACKBONE|DICT|INTERRES
   118   59  122 1    
   119   60   61 2    
   120   60   62 1    
   121   62   63 1    
   122   62   64 1    
   123   62  123 1    
   124   63  124 1    
   125   63  125 1    
   126   63  126 1    
   127   64   65 am   BACKBONE|DICT|INTERRES
   128   64  127 1    
   129   65   66 2    
@<TRIPOS>SUBSTRUCTURE
     1 UNK         1 GROUP             0       ****    0 ROOT    
