@<TRIPOS>MOLECULE
3R134
127   129    1
SMALL
USER_CHARGES


@<TRIPOS>ATOM
      1 CA         37.2280  -44.5590  -52.8423 C.3       0 UNK        -0.1968 
      2 C          36.0677  -44.9967  -51.9606 C.2       0 UNK         0.4852 
      3 O          36.2774  -45.3016  -50.7860 O.2       0 UNK        -0.5359 
      4 N          34.8507  -45.0317  -52.5242 N.am      1 UNK        -0.4300 
      5 CA         33.5997  -45.4323  -51.8604 C.3       1 UNK         0.0863 
      6 C6         33.2163  -44.4914  -50.6813 C.3       11 UNK        -0.0953 
      7 S7         31.4154  -44.2649  -50.4738 S.3       11 UNK        -0.2369 
      8 C8         31.1034  -42.7047  -51.3639 C.3       11 UNK         0.0226 
      9 C9         30.8554  -42.9396  -52.8476 C.ar      11 UNK        -0.0699 
     10 C10        31.9288  -43.0176  -53.7397 C.ar      11 UNK        -0.0804 
     11 C11        31.7087  -43.2672  -55.0971 C.ar      11 UNK        -0.0871 
     12 C12        30.3966  -43.3820  -55.5621 C.ar      11 UNK        -0.1008 
     13 C13        29.3087  -43.2933  -54.6905 C.ar      11 UNK        -0.0735 
     14 C14        29.5487  -43.0780  -53.3290 C.ar      11 UNK        -0.0945 
     15 C15        27.8815  -43.4837  -55.1992 C.3       11 UNK         0.0169 
     16 S16        27.4301  -42.3413  -56.5482 S.3       11 UNK        -0.2669 
     17 C17        27.8467  -43.2984  -58.0535 C.3       11 UNK        -0.0850 
     18 CA         26.6049  -43.9686  -58.6941 C.3       10 UNK         0.0855 
     19 C          26.8956  -44.4769  -60.1386 C.2       10 UNK         0.5543 
     20 N          26.5881  -45.7193  -60.4950 N.am      10 UNK        -0.7343 
     21 O          27.4009  -43.7197  -60.9636 O.2       10 UNK        -0.5027 
     22 N          26.0607  -45.0038  -57.8053 N.am      10 UNK        -0.4495 
     23 C          24.7684  -45.3270  -57.7022 C.2       10 UNK         0.4903 
     24 O          23.8616  -44.7440  -58.2992 O.2       10 UNK        -0.4860 
     25 CA         24.4527  -46.5163  -56.7776 C.3       9 UNK         0.0227 
     26 CB         23.0159  -47.0522  -56.9529 C.3       9 UNK        -0.1964 
     27 N          25.4310  -47.6067  -56.8895 N.am      9 UNK        -0.4231 
     28 C          25.7252  -48.3312  -57.9838 C.2       9 UNK         0.5014 
     29 O          25.2501  -48.0992  -59.0964 O.2       9 UNK        -0.5270 
     30 CA         26.7228  -49.5027  -57.8410 C.3       8 UNK         0.0284 
     31 CB         27.9806  -49.2549  -58.6904 C.3       8 UNK        -0.1977 
     32 N          27.1309  -49.7708  -56.4612 N.am      8 UNK        -0.4342 
     33 C          26.3486  -50.2725  -55.4961 C.2       8 UNK         0.5039 
     34 O          25.2233  -50.7306  -55.6952 O.2       8 UNK        -0.5547 
     35 CA         26.8817  -50.1785  -54.0549 C.3       7 UNK         0.0281 
     36 CB         27.3102  -51.5562  -53.5223 C.3       7 UNK        -0.1963 
     37 N          27.9760  -49.2070  -53.9054 N.am      7 UNK        -0.4444 
     38 C          27.8154  -47.8770  -53.9752 C.2       7 UNK         0.5104 
     39 O          26.7384  -47.3343  -54.2236 O.2       7 UNK        -0.5100 
     40 CA         29.0634  -47.0138  -53.7516 C.3       6 UNK         0.0396 
     41 CB         29.6062  -47.1775  -52.3234 C.3       6 UNK        -0.1801 
     42 N          30.1327  -47.2839  -54.7111 N.am      6 UNK        -0.4747 
     43 C          30.1320  -46.9240  -56.0034 C.2       6 UNK         0.5012 
     44 O          29.1567  -46.4426  -56.5815 O.2       6 UNK        -0.5003 
     45 CA         31.4403  -47.1654  -56.7808 C.3       5 UNK         0.0782 
     46 C46        32.5917  -46.2222  -56.3263 C.3       11 UNK        -0.0868 
     47 S47        32.6814  -44.6974  -57.3235 S.3       11 UNK        -0.2515 
     48 C48        32.8909  -43.3974  -56.0538 C.3       11 UNK         0.0199 
     49 N          31.8300  -48.5672  -56.6420 N.am      5 UNK        -0.4607 
     50 C          31.7994  -49.4815  -57.6195 C.2       4 UNK         0.5031 
     51 O          31.4722  -49.2314  -58.7794 O.2       4 UNK        -0.5119 
     52 CA         32.2117  -50.9246  -57.2607 C.3       4 UNK         0.0263 
     53 CB         33.6238  -51.2234  -57.7906 C.3       4 UNK        -0.1967 
     54 N          32.1687  -51.2306  -55.8269 N.am      4 UNK        -0.4237 
     55 C          31.0578  -51.2298  -55.0779 C.2       3 UNK         0.4908 
     56 O          29.9356  -50.9981  -55.5247 O.2       3 UNK        -0.5102 
     57 CA         31.2322  -51.4526  -53.5631 C.3       3 UNK         0.0241 
     58 CB         31.1519  -52.9505  -53.2300 C.3       3 UNK        -0.1971 
     59 N          32.4606  -50.8844  -52.9865 N.am      3 UNK        -0.4139 
     60 C          32.8592  -49.6104  -53.1113 C.2       2 UNK         0.5016 
     61 O          32.2726  -48.7792  -53.8098 O.2       2 UNK        -0.5319 
     62 CA         34.1478  -49.2049  -52.3765 C.3       2 UNK         0.0286 
     63 CB         35.3807  -49.7733  -53.0991 C.3       2 UNK        -0.1963 
     64 N          34.2663  -47.7466  -52.3308 N.am      2 UNK        -0.4790 
     65 C          33.5593  -46.9427  -51.5226 C.2       1 UNK         0.5024 
     66 O          32.8792  -47.3594  -50.5835 O.2       1 UNK        -0.4888 
     67 H67        36.9051  -44.3140  -53.8541 H         1 UNK         0.0892 
     68 H68        37.7088  -43.6778  -52.4183 H         1 UNK         0.0892 
     69 H69        37.9705  -45.3540  -52.9068 H         1 UNK         0.0892 
     70 H70        34.7617  -44.7776  -53.4974 H         1 UNK         0.3107 
     71 H71        32.8369  -45.3228  -52.6312 H         1 UNK         0.0773 
     72 H72        33.6347  -44.8557  -49.7414 H         1 UNK         0.0680 
     73 H73        33.6611  -43.5060  -50.8253 H         1 UNK         0.0680 
     74 H74        31.9321  -42.0101  -51.2196 H         1 UNK         0.0650 
     75 H75        30.2314  -42.2242  -50.9179 H         1 UNK         0.0650 
     76 H76        32.9373  -42.8994  -53.3688 H         1 UNK         0.1397 
     77 H77        30.2315  -43.5579  -56.6114 H         1 UNK         0.1363 
     78 H78        28.7182  -43.0250  -52.6384 H         1 UNK         0.1355 
     79 H79        27.1718  -43.3290  -54.3853 H         1 UNK         0.0707 
     80 H80        27.7411  -44.5146  -55.5214 H         1 UNK         0.0707 
     81 H81        28.3154  -42.6016  -58.7511 H         1 UNK         0.1034 
     82 H82        28.5947  -44.0609  -57.8415 H         1 UNK         0.1034 
     83 H83        25.8491  -43.1905  -58.8172 H         1 UNK         0.0482 
     84 H84        26.1300  -46.3547  -59.8532 H         1 UNK         0.3460 
     85 H85        26.7814  -46.0179  -61.4374 H         1 UNK         0.3460 
     86 H86        26.7411  -45.5580  -57.3040 H         1 UNK         0.2989 
     87 H87        24.5396  -46.1373  -55.7582 H         1 UNK         0.0559 
     88 H88        22.8361  -47.4037  -57.9695 H         1 UNK         0.0848 
     89 H89        22.2797  -46.2753  -56.7430 H         1 UNK         0.0848 
     90 H90        22.8155  -47.8794  -56.2719 H         1 UNK         0.0848 
     91 H91        25.9218  -47.8208  -56.0270 H         1 UNK         0.3144 
     92 H92        26.2238  -50.3958  -58.2225 H         1 UNK         0.0727 
     93 H93        28.6720  -50.0960  -58.6322 H         1 UNK         0.0790 
     94 H94        27.7240  -49.1217  -59.7422 H         1 UNK         0.0790 
     95 H95        28.5152  -48.3597  -58.3726 H         1 UNK         0.0790 
     96 H96        28.0646  -49.4854  -56.1982 H         1 UNK         0.3215 
     97 H97        26.0521  -49.8316  -53.4345 H         1 UNK         0.0863 
     98 H98        26.4577  -52.2359  -53.4913 H         1 UNK         0.0808 
     99 H99        27.7057  -51.4898  -52.5088 H         1 UNK         0.0808 
    100 H100       28.0646  -52.0254  -54.1516 H         1 UNK         0.0808 
    101 H101       28.9058  -49.5789  -53.7814 H         1 UNK         0.3118 
    102 H102       28.7655  -45.9716  -53.8679 H         1 UNK         0.0546 
    103 H103       30.4308  -46.4900  -52.1414 H         1 UNK         0.0828 
    104 H104       29.9724  -48.1866  -52.1325 H         1 UNK         0.0828 
    105 H105       28.8358  -46.9600  -51.5826 H         1 UNK         0.0828 
    106 H106       30.9657  -47.7378  -54.3367 H         1 UNK         0.3005 
    107 H107       31.2188  -46.9601  -57.8309 H         1 UNK         0.1257 
    108 H108       33.5551  -46.7186  -56.4543 H         1 UNK         0.0775 
    109 H109       32.5326  -45.9855  -55.2623 H         1 UNK         0.0775 
    110 H110       33.8120  -43.5957  -55.5044 H         1 UNK         0.0840 
    111 H111       33.0335  -42.4404  -56.5572 H         1 UNK         0.0840 
    112 H112       32.0829  -48.8600  -55.7030 H         1 UNK         0.2987 
    113 H113       31.5077  -51.5919  -57.7625 H         1 UNK         0.0785 
    114 H114       33.6855  -51.0396  -58.8643 H         1 UNK         0.0798 
    115 H115       33.8979  -52.2659  -57.6276 H         1 UNK         0.0798 
    116 H116       34.3761  -50.5970  -57.3095 H         1 UNK         0.0798 
    117 H117       33.0511  -51.4171  -55.3737 H         1 UNK         0.3079 
    118 H118       30.3960  -50.9554  -53.0689 H         1 UNK         0.0794 
    119 H119       31.1408  -53.1184  -52.1529 H         1 UNK         0.0786 
    120 H120       31.9939  -53.5036  -53.6482 H         1 UNK         0.0786 
    121 H121       30.2395  -53.3934  -53.6324 H         1 UNK         0.0786 
    122 H122       33.0113  -51.5062  -52.4114 H         1 UNK         0.3032 
    123 H123       34.1098  -49.5948  -51.3567 H         1 UNK         0.1094 
    124 H124       35.4355  -49.4349  -54.1349 H         1 UNK         0.0794 
    125 H125       36.3032  -49.4743  -52.6008 H         1 UNK         0.0794 
    126 H126       35.3646  -50.8638  -53.1128 H         1 UNK         0.0794 
    127 H127       34.7810  -47.3186  -53.0853 H         1 UNK         0.3016 
@<TRIPOS>BOND
     1    1    2 1    
     2    1   67 1    
     3    1   68 1    
     4    1   69 1    
     5    2    3 2    
     6    2    4 am   BACKBONE|DICT|INTERRES
     7    4    5 1    
     8    4   70 1    
     9    5    6 1    
    10    5   65 1    
    11    5   71 1    
    12    6    7 1    
    13    6   72 1    
    14    6   73 1    
    15    7    8 1    
    16    8    9 1    
    17    8   74 1    
    18    8   75 1    
    19    9   10 ar   
    20    9   14 ar   
    21   10   11 ar   
    22   10   76 1    
    23   11   12 ar   
    24   11   48 1    
    25   12   13 ar   
    26   12   77 1    
    27   13   14 ar   
    28   13   15 1    
    29   14   78 1    
    30   15   16 1    
    31   15   79 1    
    32   15   80 1    
    33   16   17 1    
    34   17   18 1    
    35   17   81 1    
    36   17   82 1    
    37   18   19 1    
    38   18   22 1    
    39   18   83 1    
    40   19   20 am   BACKBONE|DICT|INTERRES
    41   19   21 2    
    42   20   84 1    
    43   20   85 1    
    44   22   23 am   BACKBONE|DICT|INTERRES
    45   22   86 1    
    46   23   24 2    
    47   23   25 1    
    48   25   26 1    
    49   25   27 1    
    50   25   87 1    
    51   26   88 1    
    52   26   89 1    
    53   26   90 1    
    54   27   28 am   BACKBONE|DICT|INTERRES
    55   27   91 1    
    56   28   29 2    
    57   28   30 1    
    58   30   31 1    
    59   30   32 1    
    60   30   92 1    
    61   31   93 1    
    62   31   94 1    
    63   31   95 1    
    64   32   33 am   BACKBONE|DICT|INTERRES
    65   32   96 1    
    66   33   34 2    
    67   33   35 1    
    68   35   36 1    
    69   35   37 1    
    70   35   97 1    
    71   36   98 1    
    72   36   99 1    
    73   36  100 1    
    74   37   38 am   BACKBONE|DICT|INTERRES
    75   37  101 1    
    76   38   39 2    
    77   38   40 1    
    78   40   41 1    
    79   40   42 1    
    80   40  102 1    
    81   41  103 1    
    82   41  104 1    
    83   41  105 1    
    84   42   43 am   BACKBONE|DICT|INTERRES
    85   42  106 1    
    86   43   44 2    
    87   43   45 1    
    88   45   46 1    
    89   45   49 1    
    90   45  107 1    
    91   46   47 1    
    92   46  108 1    
    93   46  109 1    
    94   47   48 1    
    95   48  110 1    
    96   48  111 1    
    97   49   50 am   BACKBONE|DICT|INTERRES
    98   49  112 1    
    99   50   51 2    
   100   50   52 1    
   101   52   53 1    
   102   52   54 1    
   103   52  113 1    
   104   53  114 1    
   105   53  115 1    
   106   53  116 1    
   107   54   55 am   BACKBONE|DICT|INTERRES
   108   54  117 1    
   109   55   56 2    
   110   55   57 1    
   111   57   58 1    
   112   57   59 1    
   113   57  118 1    
   114   58  119 1    
   115   58  120 1    
   116   58  121 1    
   117   59   60 am   BACKBONE|DICT|INTERRES
   118   59  122 1    
   119   60   61 2    
   120   60   62 1    
   121   62   63 1    
   122   62   64 1    
   123   62  123 1    
   124   63  124 1    
   125   63  125 1    
   126   63  126 1    
   127   64   65 am   BACKBONE|DICT|INTERRES
   128   64  127 1    
   129   65   66 2    
@<TRIPOS>SUBSTRUCTURE
     1 UNK         1 GROUP             0       ****    0 ROOT    
