@<TRIPOS>MOLECULE
3R134
127   129    1
SMALL
USER_CHARGES


@<TRIPOS>ATOM
      1 CA         33.9012  -46.9880  -50.3472 C.3       0 UNK        -0.1968 
      2 C          34.8170  -46.2600  -51.3192 C.2       0 UNK         0.4852 
      3 O          36.0003  -46.5902  -51.4106 O.2       0 UNK        -0.5359 
      4 N          34.2780  -45.2715  -52.0457 N.am      1 UNK        -0.4300 
      5 CA         35.0034  -44.4715  -53.0459 C.3       1 UNK         0.0863 
      6 C6         34.3028  -43.1200  -53.3331 C.3       11 UNK        -0.0953 
      7 S7         34.0490  -42.1446  -51.8095 S.3       11 UNK        -0.2369 
      8 C8         32.5890  -41.1311  -52.2295 C.3       11 UNK         0.0226 
      9 C9         31.3459  -41.9265  -52.6267 C.ar      11 UNK        -0.0699 
     10 C10        31.0202  -43.1420  -52.0131 C.ar      11 UNK        -0.0804 
     11 C11        29.8949  -43.8635  -52.4198 C.ar      11 UNK        -0.0871 
     12 C12        29.0573  -43.3358  -53.4055 C.ar      11 UNK        -0.1008 
     13 C13        29.3598  -42.1161  -54.0225 C.ar      11 UNK        -0.0735 
     14 C14        30.5068  -41.4223  -53.6255 C.ar      11 UNK        -0.0945 
     15 C15        28.4616  -41.5070  -55.0996 C.3       11 UNK         0.0169 
     16 S16        27.5611  -42.7193  -56.1242 S.3       11 UNK        -0.2669 
     17 C17        28.9380  -43.6258  -56.9110 C.3       11 UNK        -0.0850 
     18 CA         28.5097  -44.3094  -58.2356 C.3       10 UNK         0.0855 
     19 C          29.7134  -44.9629  -58.9770 C.2       10 UNK         0.5543 
     20 N          29.5800  -46.1539  -59.5500 N.am      10 UNK        -0.7343 
     21 O          30.7890  -44.3742  -59.0472 O.2       10 UNK        -0.5027 
     22 N          27.3966  -45.2441  -58.0136 N.am      10 UNK        -0.4495 
     23 C          26.3134  -45.3558  -58.7883 C.2       10 UNK         0.4903 
     24 O          26.0907  -44.6476  -59.7722 O.2       10 UNK        -0.4860 
     25 CA         25.3288  -46.4733  -58.3953 C.3       9 UNK         0.0227 
     26 CB         24.2026  -46.6786  -59.4303 C.3       9 UNK        -0.1964 
     27 N          26.0061  -47.7442  -58.1112 N.am      9 UNK        -0.4231 
     28 C          26.8047  -48.4485  -58.9298 C.2       9 UNK         0.5014 
     29 O          27.1051  -48.0872  -60.0684 O.2       9 UNK        -0.5270 
     30 CA         27.4070  -49.7624  -58.3931 C.3       8 UNK         0.0284 
     31 CB         28.9408  -49.6613  -58.3247 C.3       8 UNK        -0.1977 
     32 N          26.9052  -50.1520  -57.0740 N.am      8 UNK        -0.4342 
     33 C          25.6811  -50.6246  -56.8055 C.2       8 UNK         0.5039 
     34 O          24.8254  -50.8459  -57.6623 O.2       8 UNK        -0.5547 
     35 CA         25.3474  -50.8449  -55.3222 C.3       7 UNK         0.0281 
     36 CB         25.7996  -52.2414  -54.8668 C.3       7 UNK        -0.1963 
     37 N          25.9675  -49.8236  -54.4720 N.am      7 UNK        -0.4444 
     38 C          25.4962  -48.5789  -54.3156 C.2       7 UNK         0.5104 
     39 O          24.4649  -48.1670  -54.8465 O.2       7 UNK        -0.5100 
     40 CA         26.3239  -47.6248  -53.4359 C.3       6 UNK         0.0396 
     41 CB         25.9691  -47.8100  -51.9524 C.3       6 UNK        -0.1801 
     42 N          27.7686  -47.7844  -53.6156 N.am      6 UNK        -0.4747 
     43 C          28.4378  -47.4130  -54.7158 C.2       6 UNK         0.5012 
     44 O          27.9054  -46.8939  -55.6985 O.2       6 UNK        -0.5003 
     45 CA         29.9570  -47.6822  -54.7394 C.3       5 UNK         0.0782 
     46 C46        30.7403  -46.4971  -54.1174 C.3       11 UNK        -0.0868 
     47 S47        30.8148  -46.4882  -52.2875 S.3       11 UNK        -0.2515 
     48 C48        29.5884  -45.2234  -51.8105 C.3       11 UNK         0.0199 
     49 N          30.3950  -48.9791  -54.1977 N.am      5 UNK        -0.4607 
     50 C          29.8455  -50.1846  -54.4080 C.2       4 UNK         0.5031 
     51 O          28.8001  -50.3644  -55.0318 O.2       4 UNK        -0.5119 
     52 CA         30.6036  -51.3922  -53.8227 C.3       4 UNK         0.0263 
     53 CB         29.9879  -52.7473  -54.2322 C.3       4 UNK        -0.1967 
     54 N          32.0363  -51.3538  -54.1376 N.am      4 UNK        -0.4237 
     55 C          32.6004  -51.3265  -55.3549 C.2       3 UNK         0.4908 
     56 O          31.9829  -51.4014  -56.4188 O.2       3 UNK        -0.5102 
     57 CA         34.1273  -51.1367  -55.3807 C.3       3 UNK         0.0241 
     58 CB         34.8010  -52.1186  -56.3555 C.3       3 UNK        -0.1971 
     59 N          34.4911  -49.7648  -55.7458 N.am      3 UNK        -0.4139 
     60 C          34.1603  -48.6703  -55.0483 C.2       2 UNK         0.5016 
     61 O          33.5126  -48.6908  -53.9948 O.2       2 UNK        -0.5319 
     62 CA         34.6247  -47.3245  -55.6208 C.3       2 UNK         0.0286 
     63 CB         33.7791  -46.9005  -56.8362 C.3       2 UNK        -0.1963 
     64 N          34.4930  -46.3413  -54.5546 N.am      2 UNK        -0.4790 
     65 C          35.2426  -45.2525  -54.3580 C.2       1 UNK         0.5024 
     66 O          36.1007  -44.8642  -55.1518 O.2       1 UNK        -0.4888 
     67 H67        33.5834  -47.9386  -50.7753 H         1 UNK         0.0892 
     68 H68        34.4232  -47.1897  -49.4122 H         1 UNK         0.0892 
     69 H69        33.0120  -46.4024  -50.1145 H         1 UNK         0.0892 
     70 H70        33.3004  -45.0460  -51.9321 H         1 UNK         0.3107 
     71 H71        35.9913  -44.2473  -52.6373 H         1 UNK         0.0773 
     72 H72        34.8989  -42.5165  -54.0201 H         1 UNK         0.0680 
     73 H73        33.3456  -43.2908  -53.8283 H         1 UNK         0.0680 
     74 H74        32.8748  -40.4503  -53.0330 H         1 UNK         0.0650 
     75 H75        32.3408  -40.5077  -51.3698 H         1 UNK         0.0650 
     76 H76        31.6530  -43.5420  -51.2337 H         1 UNK         0.1397 
     77 H77        28.1758  -43.8877  -53.7009 H         1 UNK         0.1363 
     78 H78        30.7459  -40.4777  -54.0952 H         1 UNK         0.1355 
     79 H79        27.7324  -40.8591  -54.6119 H         1 UNK         0.0707 
     80 H80        29.0474  -40.8678  -55.7622 H         1 UNK         0.0707 
     81 H81        29.7555  -42.9245  -57.0893 H         1 UNK         0.1034 
     82 H82        29.3174  -44.3665  -56.2073 H         1 UNK         0.1034 
     83 H83        28.1734  -43.5133  -58.9021 H         1 UNK         0.0482 
     84 H84        28.6860  -46.6261  -59.5626 H         1 UNK         0.3460 
     85 H85        30.3672  -46.5544  -60.0340 H         1 UNK         0.3460 
     86 H86        27.5055  -45.8768  -57.2240 H         1 UNK         0.2989 
     87 H87        24.8654  -46.1585  -57.4590 H         1 UNK         0.0559 
     88 H88        24.5968  -46.9626  -60.4067 H         1 UNK         0.0848 
     89 H89        23.6250  -45.7635  -59.5664 H         1 UNK         0.0848 
     90 H90        23.5077  -47.4552  -59.1108 H         1 UNK         0.0848 
     91 H91        25.8695  -48.1090  -57.1786 H         1 UNK         0.3144 
     92 H92        27.1456  -50.5516  -59.1008 H         1 UNK         0.0727 
     93 H93        29.2592  -48.8540  -57.6656 H         1 UNK         0.0790 
     94 H94        29.3664  -49.4644  -59.3094 H         1 UNK         0.0790 
     95 H95        29.3876  -50.5865  -57.9587 H         1 UNK         0.0790 
     96 H96        27.5672  -50.0826  -56.3009 H         1 UNK         0.3215 
     97 H97        24.2626  -50.7844  -55.2085 H         1 UNK         0.0863 
     98 H98        25.5530  -52.4182  -53.8198 H         1 UNK         0.0808 
     99 H99        26.8744  -52.3781  -54.9880 H         1 UNK         0.0808 
    100 H100       25.3061  -53.0186  -55.4519 H         1 UNK         0.0808 
    101 H101       26.8750  -50.0472  -54.0830 H         1 UNK         0.3118 
    102 H102       26.0608  -46.6031  -53.7189 H         1 UNK         0.0546 
    103 H103       26.2295  -48.8065  -51.5937 H         1 UNK         0.0828 
    104 H104       24.8992  -47.6744  -51.7883 H         1 UNK         0.0828 
    105 H105       26.4852  -47.0818  -51.3266 H         1 UNK         0.0828 
    106 H106       28.2898  -48.2057  -52.8597 H         1 UNK         0.3005 
    107 H107       30.2225  -47.7141  -55.7976 H         1 UNK         0.1257 
    108 H108       30.3726  -45.5421  -54.4901 H         1 UNK         0.0775 
    109 H109       31.7707  -46.5436  -54.4625 H         1 UNK         0.0775 
    110 H110       28.5915  -45.5611  -52.0953 H         1 UNK         0.0840 
    111 H111       29.5782  -45.1351  -50.7233 H         1 UNK         0.0840 
    112 H112       31.2770  -48.9476  -53.7005 H         1 UNK         0.2987 
    113 H113       30.5220  -51.3077  -52.7381 H         1 UNK         0.0785 
    114 H114       28.9655  -52.8358  -53.8645 H         1 UNK         0.0798 
    115 H115       30.5525  -53.5821  -53.8174 H         1 UNK         0.0798 
    116 H116       29.9564  -52.8684  -55.3157 H         1 UNK         0.0798 
    117 H117       32.6479  -51.2268  -53.3424 H         1 UNK         0.3079 
    118 H118       34.5236  -51.3336  -54.3821 H         1 UNK         0.0794 
    119 H119       34.5436  -53.1496  -56.1090 H         1 UNK         0.0786 
    120 H120       35.8875  -52.0382  -56.3132 H         1 UNK         0.0786 
    121 H121       34.4913  -51.9438  -57.3869 H         1 UNK         0.0786 
    122 H122       34.9973  -49.6534  -56.6122 H         1 UNK         0.3032 
    123 H123       35.6754  -47.4117  -55.9073 H         1 UNK         0.1094 
    124 H124       32.7160  -46.8558  -56.6003 H         1 UNK         0.0794 
    125 H125       34.0792  -45.9193  -57.2047 H         1 UNK         0.0794 
    126 H126       33.8980  -47.6033  -57.6615 H         1 UNK         0.0794 
    127 H127       33.8743  -46.6437  -53.8109 H         1 UNK         0.3016 
@<TRIPOS>BOND
     1    1    2 1    
     2    1   67 1    
     3    1   68 1    
     4    1   69 1    
     5    2    3 2    
     6    2    4 am   BACKBONE|DICT|INTERRES
     7    4    5 1    
     8    4   70 1    
     9    5    6 1    
    10    5   65 1    
    11    5   71 1    
    12    6    7 1    
    13    6   72 1    
    14    6   73 1    
    15    7    8 1    
    16    8    9 1    
    17    8   74 1    
    18    8   75 1    
    19    9   10 ar   
    20    9   14 ar   
    21   10   11 ar   
    22   10   76 1    
    23   11   12 ar   
    24   11   48 1    
    25   12   13 ar   
    26   12   77 1    
    27   13   14 ar   
    28   13   15 1    
    29   14   78 1    
    30   15   16 1    
    31   15   79 1    
    32   15   80 1    
    33   16   17 1    
    34   17   18 1    
    35   17   81 1    
    36   17   82 1    
    37   18   19 1    
    38   18   22 1    
    39   18   83 1    
    40   19   20 am   BACKBONE|DICT|INTERRES
    41   19   21 2    
    42   20   84 1    
    43   20   85 1    
    44   22   23 am   BACKBONE|DICT|INTERRES
    45   22   86 1    
    46   23   24 2    
    47   23   25 1    
    48   25   26 1    
    49   25   27 1    
    50   25   87 1    
    51   26   88 1    
    52   26   89 1    
    53   26   90 1    
    54   27   28 am   BACKBONE|DICT|INTERRES
    55   27   91 1    
    56   28   29 2    
    57   28   30 1    
    58   30   31 1    
    59   30   32 1    
    60   30   92 1    
    61   31   93 1    
    62   31   94 1    
    63   31   95 1    
    64   32   33 am   BACKBONE|DICT|INTERRES
    65   32   96 1    
    66   33   34 2    
    67   33   35 1    
    68   35   36 1    
    69   35   37 1    
    70   35   97 1    
    71   36   98 1    
    72   36   99 1    
    73   36  100 1    
    74   37   38 am   BACKBONE|DICT|INTERRES
    75   37  101 1    
    76   38   39 2    
    77   38   40 1    
    78   40   41 1    
    79   40   42 1    
    80   40  102 1    
    81   41  103 1    
    82   41  104 1    
    83   41  105 1    
    84   42   43 am   BACKBONE|DICT|INTERRES
    85   42  106 1    
    86   43   44 2    
    87   43   45 1    
    88   45   46 1    
    89   45   49 1    
    90   45  107 1    
    91   46   47 1    
    92   46  108 1    
    93   46  109 1    
    94   47   48 1    
    95   48  110 1    
    96   48  111 1    
    97   49   50 am   BACKBONE|DICT|INTERRES
    98   49  112 1    
    99   50   51 2    
   100   50   52 1    
   101   52   53 1    
   102   52   54 1    
   103   52  113 1    
   104   53  114 1    
   105   53  115 1    
   106   53  116 1    
   107   54   55 am   BACKBONE|DICT|INTERRES
   108   54  117 1    
   109   55   56 2    
   110   55   57 1    
   111   57   58 1    
   112   57   59 1    
   113   57  118 1    
   114   58  119 1    
   115   58  120 1    
   116   58  121 1    
   117   59   60 am   BACKBONE|DICT|INTERRES
   118   59  122 1    
   119   60   61 2    
   120   60   62 1    
   121   62   63 1    
   122   62   64 1    
   123   62  123 1    
   124   63  124 1    
   125   63  125 1    
   126   63  126 1    
   127   64   65 am   BACKBONE|DICT|INTERRES
   128   64  127 1    
   129   65   66 2    
@<TRIPOS>SUBSTRUCTURE
     1 UNK         1 GROUP             0       ****    0 ROOT    
