@<TRIPOS>MOLECULE
3R134
127   129    1
SMALL
USER_CHARGES


@<TRIPOS>ATOM
      1 CA         39.3121  -45.0831  -52.6751 C.3       0 UNK        -0.1968 
      2 C          38.3017  -45.8556  -53.5102 C.2       0 UNK         0.4852 
      3 O          38.6014  -46.9611  -53.9633 O.2       0 UNK        -0.5359 
      4 N          37.1089  -45.2812  -53.7177 N.am      1 UNK        -0.4300 
      5 CA         36.0008  -45.8815  -54.4716 C.3       1 UNK         0.0863 
      6 C6         34.9613  -44.8203  -54.9224 C.3       11 UNK        -0.0953 
      7 S7         34.3807  -43.6963  -53.6004 S.3       11 UNK        -0.2369 
      8 C8         32.9442  -44.5945  -52.9337 C.3       11 UNK         0.0226 
      9 C9         31.5981  -44.1019  -53.4510 C.ar      11 UNK        -0.0699 
     10 C10        30.5810  -43.8259  -52.5354 C.ar      11 UNK        -0.0804 
     11 C11        29.2924  -43.5107  -52.9721 C.ar      11 UNK        -0.0871 
     12 C12        29.0274  -43.4440  -54.3425 C.ar      11 UNK        -0.1008 
     13 C13        30.0394  -43.7010  -55.2746 C.ar      11 UNK        -0.0735 
     14 C14        31.3242  -44.0164  -54.8206 C.ar      11 UNK        -0.0945 
     15 C15        29.7337  -43.7355  -56.7669 C.3       11 UNK         0.0169 
     16 S16        28.8163  -42.2699  -57.3423 S.3       11 UNK        -0.2669 
     17 C17        28.3855  -42.7736  -59.0445 C.3       11 UNK        -0.0850 
     18 CA         26.9313  -43.3065  -59.1635 C.3       10 UNK         0.0855 
     19 C          26.5215  -43.5029  -60.6543 C.2       10 UNK         0.5543 
     20 N          26.1296  -44.6921  -61.0985 N.am      10 UNK        -0.7343 
     21 O          26.5542  -42.5478  -61.4262 O.2       10 UNK        -0.5027 
     22 N          26.7237  -44.4933  -58.3204 N.am      10 UNK        -0.4495 
     23 C          25.5450  -44.9157  -57.8490 C.2       10 UNK         0.4903 
     24 O          24.4862  -44.3045  -58.0009 O.2       10 UNK        -0.4860 
     25 CA         25.5666  -46.2551  -57.0839 C.3       9 UNK         0.0227 
     26 CB         24.1805  -46.9283  -57.0102 C.3       9 UNK        -0.1964 
     27 N          26.5737  -47.2014  -57.5865 N.am      9 UNK        -0.4231 
     28 C          26.6764  -47.6963  -58.8303 C.2       9 UNK         0.5014 
     29 O          25.9220  -47.3917  -59.7550 O.2       9 UNK        -0.5270 
     30 CA         27.8295  -48.6718  -59.1026 C.3       8 UNK         0.0284 
     31 CB         29.1204  -47.8991  -59.4272 C.3       8 UNK        -0.1977 
     32 N          28.0649  -49.5703  -57.9668 N.am      8 UNK        -0.4342 
     33 C          27.9421  -50.9034  -58.0138 C.2       8 UNK         0.5039 
     34 O          27.6165  -51.5262  -59.0259 O.2       8 UNK        -0.5547 
     35 CA         28.2425  -51.6964  -56.7295 C.3       7 UNK         0.0281 
     36 CB         29.7231  -52.1067  -56.6715 C.3       7 UNK        -0.1963 
     37 N          27.8741  -51.0091  -55.4890 N.am      7 UNK        -0.4444 
     38 C          26.6106  -50.8592  -55.0637 C.2       7 UNK         0.5104 
     39 O          25.6214  -51.1745  -55.7253 O.2       7 UNK        -0.5100 
     40 CA         26.4166  -50.2877  -53.6516 C.3       6 UNK         0.0396 
     41 CB         26.6983  -51.3650  -52.5913 C.3       6 UNK        -0.1801 
     42 N          27.2949  -49.1428  -53.4239 N.am      6 UNK        -0.4747 
     43 C          26.9242  -47.8625  -53.5657 C.2       6 UNK         0.5012 
     44 O          25.7720  -47.5098  -53.8164 O.2       6 UNK        -0.5003 
     45 CA         28.0318  -46.7932  -53.4282 C.3       5 UNK         0.0782 
     46 C46        28.0451  -46.1763  -52.0021 C.3       11 UNK        -0.0868 
     47 S47        26.9846  -44.6876  -51.9254 S.3       11 UNK        -0.2515 
     48 C48        28.1800  -43.3065  -51.9527 C.3       11 UNK         0.0199 
     49 N          29.3534  -47.2794  -53.8526 N.am      5 UNK        -0.4607 
     50 C          29.6311  -47.6691  -55.1059 C.2       4 UNK         0.5031 
     51 O          28.8182  -47.5983  -56.0264 O.2       4 UNK        -0.5119 
     52 CA         30.9994  -48.3103  -55.3970 C.3       4 UNK         0.0263 
     53 CB         31.9496  -47.2878  -56.0266 C.3       4 UNK        -0.1967 
     54 N          31.6552  -48.9478  -54.2505 N.am      4 UNK        -0.4237 
     55 C          31.1179  -49.8995  -53.4730 C.2       3 UNK         0.4908 
     56 O          29.9799  -50.3431  -53.6439 O.2       3 UNK        -0.5102 
     57 CA         31.9617  -50.4573  -52.3106 C.3       3 UNK         0.0241 
     58 CB         32.1423  -51.9776  -52.4617 C.3       3 UNK        -0.1971 
     59 N          33.2823  -49.8404  -52.1384 N.am      3 UNK        -0.4139 
     60 C          33.5280  -48.5979  -51.6983 C.2       2 UNK         0.5016 
     61 O          32.6451  -47.7784  -51.4422 O.2       2 UNK        -0.5319 
     62 CA         35.0072  -48.1961  -51.5097 C.3       2 UNK         0.0286 
     63 CB         35.9995  -49.3779  -51.6114 C.3       2 UNK        -0.1963 
     64 N          35.4349  -47.1147  -52.4071 N.am      2 UNK        -0.4790 
     65 C          35.3458  -47.0820  -53.7474 C.2       1 UNK         0.5024 
     66 O          34.7873  -47.9536  -54.4156 O.2       1 UNK        -0.4888 
     67 H67        40.2111  -44.8889  -53.2593 H         1 UNK         0.0892 
     68 H68        39.5947  -45.6632  -51.7971 H         1 UNK         0.0892 
     69 H69        38.9153  -44.1264  -52.3359 H         1 UNK         0.0892 
     70 H70        36.9177  -44.3672  -53.3303 H         1 UNK         0.3107 
     71 H71        36.4327  -46.2990  -55.3841 H         1 UNK         0.0773 
     72 H72        34.1163  -45.2898  -55.4225 H         1 UNK         0.0680 
     73 H73        35.4199  -44.1890  -55.6849 H         1 UNK         0.0680 
     74 H74        33.0213  -45.6576  -53.1522 H         1 UNK         0.0650 
     75 H75        32.9859  -44.5139  -51.8464 H         1 UNK         0.0650 
     76 H76        30.7790  -43.9079  -51.4752 H         1 UNK         0.1397 
     77 H77        28.0238  -43.2274  -54.6824 H         1 UNK         0.1363 
     78 H78        32.1012  -44.2353  -55.5375 H         1 UNK         0.1355 
     79 H79        29.1562  -44.6375  -56.9696 H         1 UNK         0.0707 
     80 H80        30.6537  -43.8185  -57.3478 H         1 UNK         0.0707 
     81 H81        29.1008  -43.5132  -59.4090 H         1 UNK         0.1034 
     82 H82        28.5192  -41.8949  -59.6786 H         1 UNK         0.1034 
     83 H83        26.2717  -42.5225  -58.7861 H         1 UNK         0.0482 
     84 H84        26.0713  -45.4953  -60.4827 H         1 UNK         0.3460 
     85 H85        25.8664  -44.7887  -62.0661 H         1 UNK         0.3460 
     86 H86        27.5326  -45.0725  -58.1619 H         1 UNK         0.2989 
     87 H87        25.8674  -46.0067  -56.0659 H         1 UNK         0.0559 
     88 H88        24.2230  -47.8540  -56.4358 H         1 UNK         0.0848 
     89 H89        23.7913  -47.1635  -58.0012 H         1 UNK         0.0848 
     90 H90        23.4547  -46.2791  -56.5192 H         1 UNK         0.0848 
     91 H91        27.3144  -47.4340  -56.9262 H         1 UNK         0.3144 
     92 H92        27.5546  -49.2442  -59.9910 H         1 UNK         0.0727 
     93 H93        29.9317  -48.5800  -59.6847 H         1 UNK         0.0790 
     94 H94        29.4546  -47.2851  -58.5907 H         1 UNK         0.0790 
     95 H95        28.9729  -47.2350  -60.2801 H         1 UNK         0.0790 
     96 H96        28.3271  -49.1291  -57.0915 H         1 UNK         0.3215 
     97 H97        27.6534  -52.6152  -56.7806 H         1 UNK         0.0863 
     98 H98        29.9279  -52.7321  -55.8023 H         1 UNK         0.0808 
     99 H99        30.3857  -51.2445  -56.6249 H         1 UNK         0.0808 
    100 H100       30.0017  -52.6813  -57.5559 H         1 UNK         0.0808 
    101 H101       28.6326  -50.7548  -54.8599 H         1 UNK         0.3118 
    102 H102       25.3712  -49.9880  -53.5503 H         1 UNK         0.0546 
    103 H103       26.0560  -52.2343  -52.7386 H         1 UNK         0.0828 
    104 H104       26.5071  -50.9886  -51.5864 H         1 UNK         0.0828 
    105 H105       27.7315  -51.7130  -52.6261 H         1 UNK         0.0828 
    106 H106       28.2748  -49.3525  -53.2630 H         1 UNK         0.3005 
    107 H107       27.7749  -46.0087  -54.1437 H         1 UNK         0.1257 
    108 H108       29.0561  -45.9128  -51.6938 H         1 UNK         0.0775 
    109 H109       27.7051  -46.8884  -51.2471 H         1 UNK         0.0775 
    110 H110       27.6482  -42.3807  -52.1764 H         1 UNK         0.0840 
    111 H111       28.5940  -43.1830  -50.9507 H         1 UNK         0.0840 
    112 H112       30.0670  -47.3630  -53.1431 H         1 UNK         0.2987 
    113 H113       30.8218  -49.0880  -56.1392 H         1 UNK         0.0785 
    114 H114       32.2781  -46.5667  -55.2834 H         1 UNK         0.0798 
    115 H115       31.4698  -46.7386  -56.8383 H         1 UNK         0.0798 
    116 H116       32.8355  -47.7706  -56.4396 H         1 UNK         0.0798 
    117 H117       32.6039  -48.6534  -54.0540 H         1 UNK         0.3079 
    118 H118       31.3900  -50.2735  -51.3986 H         1 UNK         0.0794 
    119 H119       32.7088  -52.2288  -53.3594 H         1 UNK         0.0786 
    120 H120       31.1785  -52.4842  -52.5334 H         1 UNK         0.0786 
    121 H121       32.6631  -52.4036  -51.6040 H         1 UNK         0.0786 
    122 H122       34.0776  -50.4240  -52.3549 H         1 UNK         0.3032 
    123 H123       35.0746  -47.8007  -50.4947 H         1 UNK         0.1094 
    124 H124       36.0292  -49.8093  -52.6128 H         1 UNK         0.0794 
    125 H125       37.0122  -49.0546  -51.3693 H         1 UNK         0.0794 
    126 H126       35.7470  -50.1728  -50.9080 H         1 UNK         0.0794 
    127 H127       35.8757  -46.3251  -51.9568 H         1 UNK         0.3016 
@<TRIPOS>BOND
     1    1    2 1    
     2    1   67 1    
     3    1   68 1    
     4    1   69 1    
     5    2    3 2    
     6    2    4 am   BACKBONE|DICT|INTERRES
     7    4    5 1    
     8    4   70 1    
     9    5    6 1    
    10    5   65 1    
    11    5   71 1    
    12    6    7 1    
    13    6   72 1    
    14    6   73 1    
    15    7    8 1    
    16    8    9 1    
    17    8   74 1    
    18    8   75 1    
    19    9   10 ar   
    20    9   14 ar   
    21   10   11 ar   
    22   10   76 1    
    23   11   12 ar   
    24   11   48 1    
    25   12   13 ar   
    26   12   77 1    
    27   13   14 ar   
    28   13   15 1    
    29   14   78 1    
    30   15   16 1    
    31   15   79 1    
    32   15   80 1    
    33   16   17 1    
    34   17   18 1    
    35   17   81 1    
    36   17   82 1    
    37   18   19 1    
    38   18   22 1    
    39   18   83 1    
    40   19   20 am   BACKBONE|DICT|INTERRES
    41   19   21 2    
    42   20   84 1    
    43   20   85 1    
    44   22   23 am   BACKBONE|DICT|INTERRES
    45   22   86 1    
    46   23   24 2    
    47   23   25 1    
    48   25   26 1    
    49   25   27 1    
    50   25   87 1    
    51   26   88 1    
    52   26   89 1    
    53   26   90 1    
    54   27   28 am   BACKBONE|DICT|INTERRES
    55   27   91 1    
    56   28   29 2    
    57   28   30 1    
    58   30   31 1    
    59   30   32 1    
    60   30   92 1    
    61   31   93 1    
    62   31   94 1    
    63   31   95 1    
    64   32   33 am   BACKBONE|DICT|INTERRES
    65   32   96 1    
    66   33   34 2    
    67   33   35 1    
    68   35   36 1    
    69   35   37 1    
    70   35   97 1    
    71   36   98 1    
    72   36   99 1    
    73   36  100 1    
    74   37   38 am   BACKBONE|DICT|INTERRES
    75   37  101 1    
    76   38   39 2    
    77   38   40 1    
    78   40   41 1    
    79   40   42 1    
    80   40  102 1    
    81   41  103 1    
    82   41  104 1    
    83   41  105 1    
    84   42   43 am   BACKBONE|DICT|INTERRES
    85   42  106 1    
    86   43   44 2    
    87   43   45 1    
    88   45   46 1    
    89   45   49 1    
    90   45  107 1    
    91   46   47 1    
    92   46  108 1    
    93   46  109 1    
    94   47   48 1    
    95   48  110 1    
    96   48  111 1    
    97   49   50 am   BACKBONE|DICT|INTERRES
    98   49  112 1    
    99   50   51 2    
   100   50   52 1    
   101   52   53 1    
   102   52   54 1    
   103   52  113 1    
   104   53  114 1    
   105   53  115 1    
   106   53  116 1    
   107   54   55 am   BACKBONE|DICT|INTERRES
   108   54  117 1    
   109   55   56 2    
   110   55   57 1    
   111   57   58 1    
   112   57   59 1    
   113   57  118 1    
   114   58  119 1    
   115   58  120 1    
   116   58  121 1    
   117   59   60 am   BACKBONE|DICT|INTERRES
   118   59  122 1    
   119   60   61 2    
   120   60   62 1    
   121   62   63 1    
   122   62   64 1    
   123   62  123 1    
   124   63  124 1    
   125   63  125 1    
   126   63  126 1    
   127   64   65 am   BACKBONE|DICT|INTERRES
   128   64  127 1    
   129   65   66 2    
@<TRIPOS>SUBSTRUCTURE
     1 UNK         1 GROUP             0       ****    0 ROOT    
