@<TRIPOS>MOLECULE
3R134
127   129    1
SMALL
USER_CHARGES


@<TRIPOS>ATOM
      1 CA         38.6441  -44.0921  -53.5612 C.3       0 UNK        -0.1968 
      2 C          37.2701  -44.0954  -52.9067 C.2       0 UNK         0.4852 
      3 O          37.1591  -43.7409  -51.7325 O.2       0 UNK        -0.5359 
      4 N          36.2367  -44.4922  -53.6639 N.am      1 UNK        -0.4300 
      5 CA         34.8272  -44.5904  -53.2595 C.3       1 UNK         0.0863 
      6 C6         34.1532  -43.2179  -52.9777 C.3       11 UNK        -0.0953 
      7 S7         34.1045  -42.1749  -54.4777 S.3       11 UNK        -0.2369 
      8 C8         32.3227  -42.1366  -54.8947 C.3       11 UNK         0.0226 
      9 C9         31.6849  -43.5169  -55.0368 C.ar      11 UNK        -0.0699 
     10 C10        32.3197  -44.5315  -55.7616 C.ar      11 UNK        -0.0804 
     11 C11        31.7720  -45.8150  -55.8179 C.ar      11 UNK        -0.0871 
     12 C12        30.5490  -46.0660  -55.1894 C.ar      11 UNK        -0.1008 
     13 C13        29.8699  -45.0476  -54.5163 C.ar      11 UNK        -0.0735 
     14 C14        30.4484  -43.7775  -54.4345 C.ar      11 UNK        -0.0945 
     15 C15        28.5312  -45.3385  -53.8515 C.3       11 UNK         0.0169 
     16 S16        27.2291  -45.6773  -55.0747 S.3       11 UNK        -0.2669 
     17 C17        26.1845  -46.8330  -54.1091 C.3       11 UNK        -0.0850 
     18 CA         24.7739  -47.0655  -54.7148 C.3       10 UNK         0.0855 
     19 C          23.7979  -45.8985  -54.3747 C.2       10 UNK         0.5543 
     20 N          23.2739  -45.1485  -55.3374 N.am      10 UNK        -0.7343 
     21 O          23.4997  -45.6789  -53.2033 O.2       10 UNK        -0.5027 
     22 N          24.8731  -47.4053  -56.1380 N.am      10 UNK        -0.4495 
     23 C          23.9222  -47.9563  -56.9003 C.2       10 UNK         0.4903 
     24 O          22.8713  -48.4229  -56.4593 O.2       10 UNK        -0.4860 
     25 CA         24.2045  -47.9584  -58.4191 C.3       9 UNK         0.0227 
     26 CB         22.9147  -48.0004  -59.2653 C.3       9 UNK        -0.1964 
     27 N          25.0774  -46.8468  -58.8370 N.am      9 UNK        -0.4231 
     28 C          24.8346  -45.5319  -58.6880 C.2       9 UNK         0.5014 
     29 O          23.7733  -45.0880  -58.2474 O.2       9 UNK        -0.5270 
     30 CA         25.9825  -44.5543  -59.0052 C.3       8 UNK         0.0284 
     31 CB         25.9121  -43.2853  -58.1339 C.3       8 UNK        -0.1977 
     32 N          27.2888  -45.1842  -58.8016 N.am      8 UNK        -0.4342 
     33 C          28.0956  -45.6169  -59.7770 C.2       8 UNK         0.5039 
     34 O          27.8520  -45.4974  -60.9781 O.2       8 UNK        -0.5547 
     35 CA         29.3815  -46.3352  -59.3339 C.3       7 UNK         0.0281 
     36 CB         30.5019  -45.3088  -59.0966 C.3       7 UNK        -0.1963 
     37 N          29.2198  -47.1901  -58.1473 N.am      7 UNK        -0.4444 
     38 C          28.3838  -48.2364  -58.0630 C.2       7 UNK         0.5104 
     39 O          27.5930  -48.5430  -58.9568 O.2       7 UNK        -0.5100 
     40 CA         28.4226  -49.0597  -56.7572 C.3       6 UNK         0.0396 
     41 CB         27.5017  -50.2953  -56.8087 C.3       6 UNK        -0.1801 
     42 N          29.7634  -49.4648  -56.3124 N.am      6 UNK        -0.4747 
     43 C          30.7124  -50.1075  -57.0174 C.2       6 UNK         0.5012 
     44 O          30.6292  -50.3471  -58.2219 O.2       6 UNK        -0.5003 
     45 CA         31.9660  -50.5935  -56.2483 C.3       5 UNK         0.0782 
     46 C46        33.1847  -49.6519  -56.4517 C.3       11 UNK        -0.0868 
     47 S47        33.1586  -48.1577  -55.3942 S.3       11 UNK        -0.2515 
     48 C48        32.4984  -46.9290  -56.5547 C.3       11 UNK         0.0199 
     49 N          31.7134  -50.8291  -54.8255 N.am      5 UNK        -0.4607 
     50 C          30.8949  -51.7483  -54.3003 C.2       4 UNK         0.5031 
     51 O          30.3396  -52.6273  -54.9588 O.2       4 UNK        -0.5119 
     52 CA         30.6349  -51.6537  -52.7839 C.3       4 UNK         0.0263 
     53 CB         31.4433  -52.7241  -52.0335 C.3       4 UNK        -0.1967 
     54 N          30.9343  -50.3373  -52.2039 N.am      4 UNK        -0.4237 
     55 C          30.3378  -49.1804  -52.5220 C.2       3 UNK         0.4908 
     56 O          29.4437  -49.0783  -53.3622 O.2       3 UNK        -0.5102 
     57 CA         30.8678  -47.9117  -51.8387 C.3       3 UNK         0.0241 
     58 CB         30.3317  -47.7702  -50.4015 C.3       3 UNK        -0.1971 
     59 N          32.3254  -47.7621  -51.9095 N.am      3 UNK        -0.4139 
     60 C          33.2869  -48.4567  -51.2858 C.2       2 UNK         0.5016 
     61 O          33.0615  -49.4102  -50.5387 O.2       2 UNK        -0.5319 
     62 CA         34.7495  -48.0535  -51.5696 C.3       2 UNK         0.0286 
     63 CB         35.5217  -49.2332  -52.1856 C.3       2 UNK        -0.1963 
     64 N          34.8979  -46.8897  -52.4536 N.am      2 UNK        -0.4790 
     65 C          34.6371  -45.6159  -52.1239 C.2       1 UNK         0.5024 
     66 O          34.2587  -45.2627  -51.0061 O.2       1 UNK        -0.4888 
     67 H67        39.0658  -43.0875  -53.5417 H         1 UNK         0.0892 
     68 H68        39.3187  -44.7555  -53.0205 H         1 UNK         0.0892 
     69 H69        38.6045  -44.4220  -54.5991 H         1 UNK         0.0892 
     70 H70        36.4211  -44.7630  -54.6197 H         1 UNK         0.3107 
     71 H71        34.3163  -45.0304  -54.1139 H         1 UNK         0.0773 
     72 H72        34.6839  -42.6773  -52.1927 H         1 UNK         0.0680 
     73 H73        33.1342  -43.3554  -52.6115 H         1 UNK         0.0680 
     74 H74        32.1945  -41.5942  -55.8320 H         1 UNK         0.0650 
     75 H75        31.8080  -41.5550  -54.1284 H         1 UNK         0.0650 
     76 H76        33.2630  -44.3284  -56.2498 H         1 UNK         0.1397 
     77 H77        30.1209  -47.0565  -55.2105 H         1 UNK         0.1363 
     78 H78        29.9396  -42.9929  -53.8913 H         1 UNK         0.1355 
     79 H79        28.6340  -46.2003  -53.1943 H         1 UNK         0.0707 
     80 H80        28.2168  -44.5068  -53.2194 H         1 UNK         0.0707 
     81 H81        26.1099  -46.4826  -53.0774 H         1 UNK         0.1034 
     82 H82        26.7108  -47.7871  -54.0482 H         1 UNK         0.1034 
     83 H83        24.3538  -47.9409  -54.2160 H         1 UNK         0.0482 
     84 H84        22.6420  -44.4056  -55.0862 H         1 UNK         0.3460 
     85 H85        23.5004  -45.3011  -56.3145 H         1 UNK         0.3460 
     86 H86        25.6872  -47.0317  -56.5992 H         1 UNK         0.2989 
     87 H87        24.7613  -48.8740  -58.6226 H         1 UNK         0.0559 
     88 H88        23.1395  -48.0025  -60.3317 H         1 UNK         0.0848 
     89 H89        22.2660  -47.1483  -59.0604 H         1 UNK         0.0848 
     90 H90        22.3388  -48.9026  -59.0556 H         1 UNK         0.0848 
     91 H91        25.9851  -47.1292  -59.1922 H         1 UNK         0.3144 
     92 H92        25.8622  -44.2526  -60.0476 H         1 UNK         0.0727 
     93 H93        26.7364  -42.6068  -58.3544 H         1 UNK         0.0790 
     94 H94        25.9489  -43.5229  -57.0698 H         1 UNK         0.0790 
     95 H95        24.9876  -42.7349  -58.3135 H         1 UNK         0.0790 
     96 H96        27.5803  -45.3210  -57.8431 H         1 UNK         0.3215 
     97 H97        29.6851  -46.9827  -60.1595 H         1 UNK         0.0863 
     98 H98        31.4718  -45.7928  -58.9931 H         1 UNK         0.0808 
     99 H99        30.3216  -44.7080  -58.2041 H         1 UNK         0.0808 
    100 H100       30.5858  -44.6196  -59.9384 H         1 UNK         0.0808 
    101 H101       29.8108  -46.9844  -57.3564 H         1 UNK         0.3118 
    102 H102       28.0371  -48.4048  -55.9772 H         1 UNK         0.0546 
    103 H103       27.8153  -50.9977  -57.5818 H         1 UNK         0.0828 
    104 H104       26.4707  -50.0120  -57.0216 H         1 UNK         0.0828 
    105 H105       27.4991  -50.8255  -55.8562 H         1 UNK         0.0828 
    106 H106       29.9227  -49.3514  -55.3157 H         1 UNK         0.3005 
    107 H107       32.2211  -51.5607  -56.6877 H         1 UNK         0.1257 
    108 H108       34.0950  -50.1982  -56.1997 H         1 UNK         0.0775 
    109 H109       33.3027  -49.3724  -57.5006 H         1 UNK         0.0775 
    110 H110       33.3178  -46.5344  -57.1576 H         1 UNK         0.0840 
    111 H111       31.8139  -47.4095  -57.2507 H         1 UNK         0.0840 
    112 H112       32.1320  -50.1558  -54.2008 H         1 UNK         0.2987 
    113 H113       29.5720  -51.8485  -52.6273 H         1 UNK         0.0785 
    114 H114       31.2015  -52.7313  -50.9705 H         1 UNK         0.0798 
    115 H115       31.2275  -53.7212  -52.4202 H         1 UNK         0.0798 
    116 H116       32.5173  -52.5602  -52.1324 H         1 UNK         0.0798 
    117 H117       31.6807  -50.2918  -51.5134 H         1 UNK         0.3079 
    118 H118       30.4860  -47.0669  -52.4066 H         1 UNK         0.0794 
    119 H119       29.2409  -47.7686  -50.3940 H         1 UNK         0.0786 
    120 H120       30.6602  -46.8349  -49.9481 H         1 UNK         0.0786 
    121 H121       30.6575  -48.5872  -49.7573 H         1 UNK         0.0786 
    122 H122       32.6434  -47.0415  -52.5415 H         1 UNK         0.3032 
    123 H123       35.2017  -47.8101  -50.6055 H         1 UNK         0.1094 
    124 H124       35.1074  -49.5271  -53.1510 H         1 UNK         0.0794 
    125 H125       36.5736  -48.9867  -52.3317 H         1 UNK         0.0794 
    126 H126       35.4863  -50.1093  -51.5363 H         1 UNK         0.0794 
    127 H127       35.2031  -47.0876  -53.3967 H         1 UNK         0.3016 
@<TRIPOS>BOND
     1    1    2 1    
     2    1   67 1    
     3    1   68 1    
     4    1   69 1    
     5    2    3 2    
     6    2    4 am   BACKBONE|DICT|INTERRES
     7    4    5 1    
     8    4   70 1    
     9    5    6 1    
    10    5   65 1    
    11    5   71 1    
    12    6    7 1    
    13    6   72 1    
    14    6   73 1    
    15    7    8 1    
    16    8    9 1    
    17    8   74 1    
    18    8   75 1    
    19    9   10 ar   
    20    9   14 ar   
    21   10   11 ar   
    22   10   76 1    
    23   11   12 ar   
    24   11   48 1    
    25   12   13 ar   
    26   12   77 1    
    27   13   14 ar   
    28   13   15 1    
    29   14   78 1    
    30   15   16 1    
    31   15   79 1    
    32   15   80 1    
    33   16   17 1    
    34   17   18 1    
    35   17   81 1    
    36   17   82 1    
    37   18   19 1    
    38   18   22 1    
    39   18   83 1    
    40   19   20 am   BACKBONE|DICT|INTERRES
    41   19   21 2    
    42   20   84 1    
    43   20   85 1    
    44   22   23 am   BACKBONE|DICT|INTERRES
    45   22   86 1    
    46   23   24 2    
    47   23   25 1    
    48   25   26 1    
    49   25   27 1    
    50   25   87 1    
    51   26   88 1    
    52   26   89 1    
    53   26   90 1    
    54   27   28 am   BACKBONE|DICT|INTERRES
    55   27   91 1    
    56   28   29 2    
    57   28   30 1    
    58   30   31 1    
    59   30   32 1    
    60   30   92 1    
    61   31   93 1    
    62   31   94 1    
    63   31   95 1    
    64   32   33 am   BACKBONE|DICT|INTERRES
    65   32   96 1    
    66   33   34 2    
    67   33   35 1    
    68   35   36 1    
    69   35   37 1    
    70   35   97 1    
    71   36   98 1    
    72   36   99 1    
    73   36  100 1    
    74   37   38 am   BACKBONE|DICT|INTERRES
    75   37  101 1    
    76   38   39 2    
    77   38   40 1    
    78   40   41 1    
    79   40   42 1    
    80   40  102 1    
    81   41  103 1    
    82   41  104 1    
    83   41  105 1    
    84   42   43 am   BACKBONE|DICT|INTERRES
    85   42  106 1    
    86   43   44 2    
    87   43   45 1    
    88   45   46 1    
    89   45   49 1    
    90   45  107 1    
    91   46   47 1    
    92   46  108 1    
    93   46  109 1    
    94   47   48 1    
    95   48  110 1    
    96   48  111 1    
    97   49   50 am   BACKBONE|DICT|INTERRES
    98   49  112 1    
    99   50   51 2    
   100   50   52 1    
   101   52   53 1    
   102   52   54 1    
   103   52  113 1    
   104   53  114 1    
   105   53  115 1    
   106   53  116 1    
   107   54   55 am   BACKBONE|DICT|INTERRES
   108   54  117 1    
   109   55   56 2    
   110   55   57 1    
   111   57   58 1    
   112   57   59 1    
   113   57  118 1    
   114   58  119 1    
   115   58  120 1    
   116   58  121 1    
   117   59   60 am   BACKBONE|DICT|INTERRES
   118   59  122 1    
   119   60   61 2    
   120   60   62 1    
   121   62   63 1    
   122   62   64 1    
   123   62  123 1    
   124   63  124 1    
   125   63  125 1    
   126   63  126 1    
   127   64   65 am   BACKBONE|DICT|INTERRES
   128   64  127 1    
   129   65   66 2    
@<TRIPOS>SUBSTRUCTURE
     1 UNK         1 GROUP             0       ****    0 ROOT    
