@<TRIPOS>MOLECULE
3R134
127   129    1
SMALL
USER_CHARGES


@<TRIPOS>ATOM
      1 CA         34.3052  -42.8554  -59.3050 C.3       0 UNK        -0.1968 
      2 C          33.6917  -43.8078  -58.2888 C.2       0 UNK         0.4852 
      3 O          32.6572  -44.4129  -58.5693 O.2       0 UNK        -0.5359 
      4 N          34.3193  -43.9350  -57.1130 N.am      1 UNK        -0.4300 
      5 CA         33.9059  -44.8216  -56.0195 C.3       1 UNK         0.0863 
      6 C6         34.6743  -44.5073  -54.7091 C.3       11 UNK        -0.0953 
      7 S7         34.5013  -42.7744  -54.1697 S.3       11 UNK        -0.2369 
      8 C8         33.7532  -42.9649  -52.5156 C.3       11 UNK         0.0226 
      9 C9         32.2871  -43.3926  -52.5306 C.ar      11 UNK        -0.0699 
     10 C10        31.8123  -44.2717  -51.5512 C.ar      11 UNK        -0.0804 
     11 C11        30.4569  -44.6143  -51.4921 C.ar      11 UNK        -0.0871 
     12 C12        29.5738  -44.0912  -52.4428 C.ar      11 UNK        -0.1008 
     13 C13        30.0341  -43.2072  -53.4241 C.ar      11 UNK        -0.0735 
     14 C14        31.3868  -42.8596  -53.4592 C.ar      11 UNK        -0.0945 
     15 C15        29.0718  -42.5823  -54.4214 C.3       11 UNK         0.0169 
     16 S16        29.2011  -43.3763  -56.0496 S.3       11 UNK        -0.2669 
     17 C17        28.0963  -42.3068  -57.0368 C.3       11 UNK        -0.0850 
     18 CA         26.6065  -42.7350  -56.9673 C.3       10 UNK         0.0855 
     19 C          25.7021  -41.7639  -57.7800 C.2       10 UNK         0.5543 
     20 N          24.9767  -42.2198  -58.7941 N.am      10 UNK        -0.7343 
     21 O          25.6537  -40.5741  -57.4780 O.2       10 UNK        -0.5027 
     22 N          26.4419  -44.1553  -57.3065 N.am      10 UNK        -0.4495 
     23 C          25.4511  -44.9481  -56.8896 C.2       10 UNK         0.4903 
     24 O          24.5025  -44.5551  -56.2102 O.2       10 UNK        -0.4860 
     25 CA         25.5388  -46.4422  -57.2505 C.3       9 UNK         0.0227 
     26 CB         24.6187  -46.7902  -58.4365 C.3       9 UNK        -0.1964 
     27 N          26.9049  -46.9488  -57.4541 N.am      9 UNK        -0.4231 
     28 C          27.7646  -46.7128  -58.4577 C.2       9 UNK         0.5014 
     29 O          27.5371  -45.9431  -59.3910 O.2       9 UNK        -0.5270 
     30 CA         29.1173  -47.4405  -58.3973 C.3       8 UNK         0.0284 
     31 CB         30.1496  -46.5936  -57.6355 C.3       8 UNK        -0.1977 
     32 N          28.9890  -48.7547  -57.7628 N.am      8 UNK        -0.4342 
     33 C          28.6820  -49.8846  -58.4169 C.2       8 UNK         0.5039 
     34 O          28.6037  -49.9672  -59.6431 O.2       8 UNK        -0.5547 
     35 CA         28.3951  -51.1360  -57.5641 C.3       7 UNK         0.0281 
     36 CB         29.6769  -51.9564  -57.3483 C.3       7 UNK        -0.1963 
     37 N          27.7966  -50.8200  -56.2649 N.am      7 UNK        -0.4444 
     38 C          26.5603  -50.3312  -56.0906 C.2       7 UNK         0.5104 
     39 O          25.7444  -50.1896  -57.0006 O.2       7 UNK        -0.5100 
     40 CA         26.1794  -49.8908  -54.6645 C.3       6 UNK         0.0396 
     41 CB         25.3645  -50.9896  -53.9652 C.3       6 UNK        -0.1801 
     42 N          27.3232  -49.5308  -53.8179 N.am      6 UNK        -0.4747 
     43 C          28.2070  -48.5510  -54.0502 C.2       6 UNK         0.5012 
     44 O          28.1737  -47.8446  -55.0570 O.2       6 UNK        -0.5003 
     45 CA         29.3517  -48.3702  -53.0329 C.3       5 UNK         0.0782 
     46 C46        28.8502  -47.7080  -51.7257 C.3       11 UNK        -0.0868 
     47 S47        30.2302  -47.2574  -50.6203 S.3       11 UNK        -0.2515 
     48 C48        29.9421  -45.4809  -50.3493 C.3       11 UNK         0.0199 
     49 N          30.1291  -49.6048  -52.8309 N.am      5 UNK        -0.4607 
     50 C          29.7395  -50.7627  -52.2735 C.2       4 UNK         0.5031 
     51 O          28.6209  -50.9450  -51.7913 O.2       4 UNK        -0.5119 
     52 CA         30.7263  -51.9450  -52.3037 C.3       4 UNK         0.0263 
     53 CB         30.2362  -53.0167  -53.2931 C.3       4 UNK        -0.1967 
     54 N          32.0882  -51.5545  -52.6728 N.am      4 UNK        -0.4237 
     55 C          32.9938  -51.0543  -51.8217 C.2       3 UNK         0.4908 
     56 O          32.8082  -50.9390  -50.6099 O.2       3 UNK        -0.5102 
     57 CA         34.3310  -50.5886  -52.4285 C.3       3 UNK         0.0241 
     58 CB         35.3731  -51.7172  -52.3601 C.3       3 UNK        -0.1971 
     59 N          34.2371  -50.0953  -53.8107 N.am      3 UNK        -0.4139 
     60 C          33.5009  -49.0440  -54.1955 C.2       2 UNK         0.5016 
     61 O          32.7421  -48.4249  -53.4460 O.2       2 UNK        -0.5319 
     62 CA         33.5873  -48.6258  -55.6655 C.3       2 UNK         0.0286 
     63 CB         32.5093  -49.3393  -56.4977 C.3       2 UNK        -0.1963 
     64 N          33.3688  -47.1829  -55.7066 N.am      2 UNK        -0.4790 
     65 C          34.1143  -46.3068  -56.3852 C.2       1 UNK         0.5024 
     66 O          34.9816  -46.6334  -57.2003 O.2       1 UNK        -0.4888 
     67 H67        33.5908  -42.0752  -59.5664 H         1 UNK         0.0892 
     68 H68        34.5678  -43.3961  -60.2139 H         1 UNK         0.0892 
     69 H69        35.2063  -42.3757  -58.9233 H         1 UNK         0.0892 
     70 H70        35.1694  -43.4167  -56.9465 H         1 UNK         0.3107 
     71 H71        32.8388  -44.6606  -55.8467 H         1 UNK         0.0773 
     72 H72        35.7404  -44.7093  -54.8312 H         1 UNK         0.0680 
     73 H73        34.3350  -45.1621  -53.9038 H         1 UNK         0.0680 
     74 H74        34.3557  -43.6680  -51.9381 H         1 UNK         0.0650 
     75 H75        33.8209  -42.0072  -51.9984 H         1 UNK         0.0650 
     76 H76        32.4924  -44.6669  -50.8087 H         1 UNK         0.1397 
     77 H77        28.5232  -44.3435  -52.3994 H         1 UNK         0.1363 
     78 H78        31.7327  -42.1595  -54.2071 H         1 UNK         0.1355 
     79 H79        28.0439  -42.6593  -54.0637 H         1 UNK         0.0707 
     80 H80        29.2892  -41.5172  -54.5150 H         1 UNK         0.0707 
     81 H81        28.4452  -42.3330  -58.0708 H         1 UNK         0.1034 
     82 H82        28.2174  -41.2726  -56.7086 H         1 UNK         0.1034 
     83 H83        26.2918  -42.6173  -55.9287 H         1 UNK         0.0482 
     84 H84        24.3909  -41.5836  -59.3115 H         1 UNK         0.3460 
     85 H85        25.0126  -43.1950  -59.0444 H         1 UNK         0.3460 
     86 H86        27.1447  -44.5590  -57.9136 H         1 UNK         0.2989 
     87 H87        25.1642  -46.9850  -56.3815 H         1 UNK         0.0559 
     88 H88        24.9068  -46.2658  -59.3478 H         1 UNK         0.0848 
     89 H89        23.5855  -46.5159  -58.2196 H         1 UNK         0.0848 
     90 H90        24.6327  -47.8602  -58.6450 H         1 UNK         0.0848 
     91 H91        27.2705  -47.4776  -56.6669 H         1 UNK         0.3144 
     92 H92        29.4747  -47.5611  -59.4223 H         1 UNK         0.0727 
     93 H93        31.1443  -47.0326  -57.6935 H         1 UNK         0.0790 
     94 H94        29.8926  -46.4750  -56.5826 H         1 UNK         0.0790 
     95 H95        30.2213  -45.5930  -58.0640 H         1 UNK         0.0790 
     96 H96        28.9821  -48.7612  -56.7508 H         1 UNK         0.3215 
     97 H97        27.6861  -51.7529  -58.1209 H         1 UNK         0.0863 
     98 H98        29.4616  -52.9039  -56.8538 H         1 UNK         0.0808 
     99 H99        30.4057  -51.4191  -56.7425 H         1 UNK         0.0808 
    100 H100       30.1543  -52.1923  -58.3005 H         1 UNK         0.0808 
    101 H101       28.3792  -50.9254  -55.4483 H         1 UNK         0.3118 
    102 H102       25.5494  -49.0039  -54.7569 H         1 UNK         0.0546 
    103 H103       24.4911  -51.2667  -54.5573 H         1 UNK         0.0828 
    104 H104       25.0016  -50.6564  -52.9928 H         1 UNK         0.0828 
    105 H105       25.9552  -51.8935  -53.8110 H         1 UNK         0.0828 
    106 H106       27.4813  -50.0991  -52.9876 H         1 UNK         0.3005 
    107 H107       30.0469  -47.6664  -53.4958 H         1 UNK         0.1257 
    108 H108       28.1767  -48.3715  -51.1813 H         1 UNK         0.0775 
    109 H109       28.2688  -46.8135  -51.9553 H         1 UNK         0.0775 
    110 H110       28.8806  -45.3009  -50.1719 H         1 UNK         0.0840 
    111 H111       30.4470  -45.1892  -49.4271 H         1 UNK         0.0840 
    112 H112       31.0971  -49.5214  -53.1224 H         1 UNK         0.2987 
    113 H113       30.7380  -52.3843  -51.3038 H         1 UNK         0.0785 
    114 H114       29.2318  -53.3574  -53.0372 H         1 UNK         0.0798 
    115 H115       30.8842  -53.8933  -53.2800 H         1 UNK         0.0798 
    116 H116       30.2020  -52.6402  -54.3157 H         1 UNK         0.0798 
    117 H117       32.3399  -51.6329  -53.6471 H         1 UNK         0.3079 
    118 H118       34.6874  -49.7597  -51.8131 H         1 UNK         0.0794 
    119 H119       35.0921  -52.5659  -52.9851 H         1 UNK         0.0786 
    120 H120       35.4823  -52.0867  -51.3393 H         1 UNK         0.0786 
    121 H121       36.3555  -51.3717  -52.6827 H         1 UNK         0.0786 
    122 H122       34.8202  -50.5590  -54.4933 H         1 UNK         0.3032 
    123 H123       34.5792  -48.8779  -56.0486 H         1 UNK         0.1094 
    124 H124       32.5487  -49.0306  -57.5424 H         1 UNK         0.0794 
    125 H125       32.6525  -50.4201  -56.4771 H         1 UNK         0.0794 
    126 H126       31.5063  -49.1303  -56.1238 H         1 UNK         0.0794 
    127 H127       32.7403  -46.8473  -54.9865 H         1 UNK         0.3016 
@<TRIPOS>BOND
     1    1    2 1    
     2    1   67 1    
     3    1   68 1    
     4    1   69 1    
     5    2    3 2    
     6    2    4 am   BACKBONE|DICT|INTERRES
     7    4    5 1    
     8    4   70 1    
     9    5    6 1    
    10    5   65 1    
    11    5   71 1    
    12    6    7 1    
    13    6   72 1    
    14    6   73 1    
    15    7    8 1    
    16    8    9 1    
    17    8   74 1    
    18    8   75 1    
    19    9   10 ar   
    20    9   14 ar   
    21   10   11 ar   
    22   10   76 1    
    23   11   12 ar   
    24   11   48 1    
    25   12   13 ar   
    26   12   77 1    
    27   13   14 ar   
    28   13   15 1    
    29   14   78 1    
    30   15   16 1    
    31   15   79 1    
    32   15   80 1    
    33   16   17 1    
    34   17   18 1    
    35   17   81 1    
    36   17   82 1    
    37   18   19 1    
    38   18   22 1    
    39   18   83 1    
    40   19   20 am   BACKBONE|DICT|INTERRES
    41   19   21 2    
    42   20   84 1    
    43   20   85 1    
    44   22   23 am   BACKBONE|DICT|INTERRES
    45   22   86 1    
    46   23   24 2    
    47   23   25 1    
    48   25   26 1    
    49   25   27 1    
    50   25   87 1    
    51   26   88 1    
    52   26   89 1    
    53   26   90 1    
    54   27   28 am   BACKBONE|DICT|INTERRES
    55   27   91 1    
    56   28   29 2    
    57   28   30 1    
    58   30   31 1    
    59   30   32 1    
    60   30   92 1    
    61   31   93 1    
    62   31   94 1    
    63   31   95 1    
    64   32   33 am   BACKBONE|DICT|INTERRES
    65   32   96 1    
    66   33   34 2    
    67   33   35 1    
    68   35   36 1    
    69   35   37 1    
    70   35   97 1    
    71   36   98 1    
    72   36   99 1    
    73   36  100 1    
    74   37   38 am   BACKBONE|DICT|INTERRES
    75   37  101 1    
    76   38   39 2    
    77   38   40 1    
    78   40   41 1    
    79   40   42 1    
    80   40  102 1    
    81   41  103 1    
    82   41  104 1    
    83   41  105 1    
    84   42   43 am   BACKBONE|DICT|INTERRES
    85   42  106 1    
    86   43   44 2    
    87   43   45 1    
    88   45   46 1    
    89   45   49 1    
    90   45  107 1    
    91   46   47 1    
    92   46  108 1    
    93   46  109 1    
    94   47   48 1    
    95   48  110 1    
    96   48  111 1    
    97   49   50 am   BACKBONE|DICT|INTERRES
    98   49  112 1    
    99   50   51 2    
   100   50   52 1    
   101   52   53 1    
   102   52   54 1    
   103   52  113 1    
   104   53  114 1    
   105   53  115 1    
   106   53  116 1    
   107   54   55 am   BACKBONE|DICT|INTERRES
   108   54  117 1    
   109   55   56 2    
   110   55   57 1    
   111   57   58 1    
   112   57   59 1    
   113   57  118 1    
   114   58  119 1    
   115   58  120 1    
   116   58  121 1    
   117   59   60 am   BACKBONE|DICT|INTERRES
   118   59  122 1    
   119   60   61 2    
   120   60   62 1    
   121   62   63 1    
   122   62   64 1    
   123   62  123 1    
   124   63  124 1    
   125   63  125 1    
   126   63  126 1    
   127   64   65 am   BACKBONE|DICT|INTERRES
   128   64  127 1    
   129   65   66 2    
@<TRIPOS>SUBSTRUCTURE
     1 UNK         1 GROUP             0       ****    0 ROOT    
