@<TRIPOS>MOLECULE
3R134
127   129    1
SMALL
USER_CHARGES


@<TRIPOS>ATOM
      1 CA         33.8348  -43.6527  -50.8759 C.3       0 UNK        -0.1968 
      2 C          34.7279  -44.6349  -51.6196 C.2       0 UNK         0.4852 
      3 O          35.8610  -44.8722  -51.1974 O.2       0 UNK        -0.5359 
      4 N          34.2286  -45.2000  -52.7257 N.am      1 UNK        -0.4300 
      5 CA         34.9143  -46.2114  -53.5348 C.3       1 UNK         0.0863 
      6 C6         34.2261  -46.4258  -54.9053 C.3       11 UNK        -0.0953 
      7 S7         34.2884  -44.9483  -55.9725 S.3       11 UNK        -0.2369 
      8 C8         32.6936  -45.0754  -56.8481 C.3       11 UNK         0.0226 
      9 C9         31.6407  -44.1160  -56.3039 C.ar      11 UNK        -0.0699 
     10 C10        31.3173  -44.1020  -54.9440 C.ar      11 UNK        -0.0804 
     11 C11        30.3838  -43.1911  -54.4376 C.ar      11 UNK        -0.0871 
     12 C12        29.7613  -42.2984  -55.3143 C.ar      11 UNK        -0.1008 
     13 C13        30.0504  -42.3166  -56.6837 C.ar      11 UNK        -0.0735 
     14 C14        30.9920  -43.2292  -57.1687 C.ar      11 UNK        -0.0945 
     15 C15        29.4178  -41.3085  -57.6399 C.3       11 UNK         0.0169 
     16 S16        27.6499  -40.9885  -57.3250 S.3       11 UNK        -0.2669 
     17 C17        26.8494  -42.4975  -57.9721 C.3       11 UNK        -0.0850 
     18 CA         26.3967  -43.4997  -56.8682 C.3       10 UNK         0.0855 
     19 C          25.1476  -43.0513  -56.0443 C.2       10 UNK         0.5543 
     20 N          24.4384  -43.9722  -55.4010 N.am      10 UNK        -0.7343 
     21 O          24.8125  -41.8721  -55.9704 O.2       10 UNK        -0.5027 
     22 N          26.2772  -44.8761  -57.3785 N.am      10 UNK        -0.4495 
     23 C          25.4571  -45.2823  -58.3592 C.2       10 UNK         0.4903 
     24 O          24.7626  -44.5195  -59.0328 O.2       10 UNK        -0.4860 
     25 CA         25.3749  -46.8016  -58.6066 C.3       9 UNK         0.0227 
     26 CB         24.8258  -47.1611  -60.0040 C.3       9 UNK        -0.1964 
     27 N          26.6322  -47.5040  -58.3331 N.am      9 UNK        -0.4231 
     28 C          27.8050  -47.3843  -58.9741 C.2       9 UNK         0.5014 
     29 O          27.9870  -46.6509  -59.9467 O.2       9 UNK        -0.5270 
     30 CA         28.9900  -48.2130  -58.4356 C.3       8 UNK         0.0284 
     31 CB         30.0320  -47.2942  -57.7828 C.3       8 UNK        -0.1977 
     32 N          28.6039  -49.2452  -57.4686 N.am      8 UNK        -0.4342 
     33 C          27.9419  -50.3707  -57.7723 C.2       8 UNK         0.5039 
     34 O          27.6543  -50.7110  -58.9201 O.2       8 UNK        -0.5547 
     35 CA         27.4835  -51.2372  -56.5896 C.3       7 UNK         0.0281 
     36 CB         28.6005  -52.1962  -56.1583 C.3       7 UNK        -0.1963 
     37 N          27.0614  -50.4229  -55.4461 N.am      7 UNK        -0.4444 
     38 C          25.9143  -49.7305  -55.3978 C.2       7 UNK         0.5104 
     39 O          25.0775  -49.7262  -56.2999 O.2       7 UNK        -0.5100 
     40 CA         25.6773  -48.8661  -54.1486 C.3       6 UNK         0.0396 
     41 CB         25.1000  -49.7139  -53.0042 C.3       6 UNK        -0.1801 
     42 N          26.8902  -48.1840  -53.6920 N.am      6 UNK        -0.4747 
     43 C          27.5160  -47.2090  -54.3682 C.2       6 UNK         0.5012 
     44 O          27.1213  -46.7603  -55.4436 O.2       6 UNK        -0.5003 
     45 CA         28.8148  -46.6571  -53.7527 C.3       5 UNK         0.0782 
     46 C46        28.4983  -45.4452  -52.8432 C.3       11 UNK        -0.0868 
     47 S47        29.9986  -44.7186  -52.1004 S.3       11 UNK        -0.2515 
     48 C48        30.0830  -43.1037  -52.9432 C.3       11 UNK         0.0199 
     49 N          29.5939  -47.6850  -53.0513 N.am      5 UNK        -0.4607 
     50 C          30.1325  -48.7745  -53.6115 C.2       4 UNK         0.5031 
     51 O          29.9627  -49.0937  -54.7908 O.2       4 UNK        -0.5119 
     52 CA         30.9694  -49.6501  -52.6674 C.3       4 UNK         0.0263 
     53 CB         30.1293  -50.7909  -52.0578 C.3       4 UNK        -0.1967 
     54 N          32.2097  -50.1101  -53.3023 N.am      4 UNK        -0.4237 
     55 C          32.4133  -51.1378  -54.1435 C.2       3 UNK         0.4908 
     56 O          31.5680  -51.9831  -54.4320 O.2       3 UNK        -0.5102 
     57 CA         33.8091  -51.2607  -54.7889 C.3       3 UNK         0.0241 
     58 CB         33.7387  -50.8664  -56.2745 C.3       3 UNK        -0.1971 
     59 N          34.8418  -50.4519  -54.1371 N.am      3 UNK        -0.4139 
     60 C          35.3734  -50.6919  -52.9299 C.2       2 UNK         0.5016 
     61 O          35.1242  -51.6920  -52.2567 O.2       2 UNK        -0.5319 
     62 CA         36.3186  -49.6133  -52.3643 C.3       2 UNK         0.0286 
     63 CB         37.7861  -50.0189  -52.5769 C.3       2 UNK        -0.1963 
     64 N          36.1003  -48.2732  -52.9296 N.am      2 UNK        -0.4790 
     65 C          34.9775  -47.5542  -52.7835 C.2       1 UNK         0.5024 
     66 O          33.9897  -47.9516  -52.1609 O.2       1 UNK        -0.4888 
     67 H67        32.8632  -43.5413  -51.3558 H         1 UNK         0.0892 
     68 H68        33.6695  -43.9953  -49.8548 H         1 UNK         0.0892 
     69 H69        34.3072  -42.6716  -50.8351 H         1 UNK         0.0892 
     70 H70        33.2865  -44.9800  -53.0065 H         1 UNK         0.3107 
     71 H71        35.9357  -45.8653  -53.7091 H         1 UNK         0.0773 
     72 H72        34.7100  -47.2329  -55.4589 H         1 UNK         0.0680 
     73 H73        33.1895  -46.7375  -54.7611 H         1 UNK         0.0680 
     74 H74        32.3199  -46.0961  -56.7945 H         1 UNK         0.0650 
     75 H75        32.8773  -44.8773  -57.9051 H         1 UNK         0.0650 
     76 H76        31.8120  -44.7893  -54.2764 H         1 UNK         0.1397 
     77 H77        29.0597  -41.5725  -54.9268 H         1 UNK         0.1363 
     78 H78        31.2382  -43.2328  -58.2219 H         1 UNK         0.1355 
     79 H79        29.9580  -40.3661  -57.5413 H         1 UNK         0.0707 
     80 H80        29.5418  -41.6234  -58.6773 H         1 UNK         0.0707 
     81 H81        27.5449  -42.9892  -58.6540 H         1 UNK         0.1034 
     82 H82        25.9992  -42.1984  -58.5873 H         1 UNK         0.1034 
     83 H83        27.2040  -43.5550  -56.1374 H         1 UNK         0.0482 
     84 H84        24.7054  -44.9427  -55.4433 H         1 UNK         0.3460 
     85 H85        23.6319  -43.6904  -54.8666 H         1 UNK         0.3460 
     86 H86        26.7496  -45.5885  -56.8265 H         1 UNK         0.2989 
     87 H87        24.6634  -47.1816  -57.8721 H         1 UNK         0.0559 
     88 H88        25.4446  -46.7492  -60.8016 H         1 UNK         0.0848 
     89 H89        23.8177  -46.7682  -60.1412 H         1 UNK         0.0848 
     90 H90        24.7725  -48.2409  -60.1432 H         1 UNK         0.0848 
     91 H91        26.6151  -48.1087  -57.5230 H         1 UNK         0.3144 
     92 H92        29.4568  -48.7073  -59.2900 H         1 UNK         0.0727 
     93 H93        30.8823  -47.8672  -57.4123 H         1 UNK         0.0790 
     94 H94        29.6104  -46.7359  -56.9469 H         1 UNK         0.0790 
     95 H95        30.4141  -46.5661  -58.4996 H         1 UNK         0.0790 
     96 H96        28.8745  -49.0906  -56.5012 H         1 UNK         0.3215 
     97 H97        26.6306  -51.8342  -56.9207 H         1 UNK         0.0863 
     98 H98        29.4929  -51.6499  -55.8558 H         1 UNK         0.0808 
     99 H99        28.8864  -52.8566  -56.9779 H         1 UNK         0.0808 
    100 H100       28.2911  -52.8263  -55.3244 H         1 UNK         0.0808 
    101 H101       27.7164  -50.3313  -54.6828 H         1 UNK         0.3118 
    102 H102       24.9409  -48.1025  -54.4087 H         1 UNK         0.0546 
    103 H103       24.8485  -49.0971  -52.1413 H         1 UNK         0.0828 
    104 H104       25.7988  -50.4840  -52.6750 H         1 UNK         0.0828 
    105 H105       24.1843  -50.2178  -53.3169 H         1 UNK         0.0828 
    106 H106       27.2850  -48.4853  -52.8127 H         1 UNK         0.3005 
    107 H107       29.4270  -46.3035  -54.5844 H         1 UNK         0.1257 
    108 H108       27.8335  -45.7388  -52.0284 H         1 UNK         0.0775 
    109 H109       27.9647  -44.6756  -53.4052 H         1 UNK         0.0775 
    110 H110       29.1454  -42.5730  -52.7689 H         1 UNK         0.0840 
    111 H111       30.8624  -42.5045  -52.4715 H         1 UNK         0.0840 
    112 H112       29.7841  -47.4921  -52.0782 H         1 UNK         0.2987 
    113 H113       31.3049  -49.0208  -51.8411 H         1 UNK         0.0785 
    114 H114       30.7398  -51.4466  -51.4370 H         1 UNK         0.0798 
    115 H115       29.3356  -50.3919  -51.4254 H         1 UNK         0.0798 
    116 H116       29.6495  -51.4016  -52.8233 H         1 UNK         0.0798 
    117 H117       32.9987  -49.4991  -53.1246 H         1 UNK         0.3079 
    118 H118       34.1068  -52.3095  -54.7236 H         1 UNK         0.0794 
    119 H119       33.0072  -51.4770  -56.8061 H         1 UNK         0.0786 
    120 H120       34.6985  -51.0097  -56.7712 H         1 UNK         0.0786 
    121 H121       33.4435  -49.8238  -56.4023 H         1 UNK         0.0786 
    122 H122       35.1385  -49.6187  -54.6226 H         1 UNK         0.3032 
    123 H123       36.1298  -49.5561  -51.2897 H         1 UNK         0.1094 
    124 H124       38.0421  -50.0728  -53.6359 H         1 UNK         0.0794 
    125 H125       38.4668  -49.3128  -52.1008 H         1 UNK         0.0794 
    126 H126       37.9866  -50.9999  -52.1434 H         1 UNK         0.0794 
    127 H127       36.8645  -47.8802  -53.4620 H         1 UNK         0.3016 
@<TRIPOS>BOND
     1    1    2 1    
     2    1   67 1    
     3    1   68 1    
     4    1   69 1    
     5    2    3 2    
     6    2    4 am   BACKBONE|DICT|INTERRES
     7    4    5 1    
     8    4   70 1    
     9    5    6 1    
    10    5   65 1    
    11    5   71 1    
    12    6    7 1    
    13    6   72 1    
    14    6   73 1    
    15    7    8 1    
    16    8    9 1    
    17    8   74 1    
    18    8   75 1    
    19    9   10 ar   
    20    9   14 ar   
    21   10   11 ar   
    22   10   76 1    
    23   11   12 ar   
    24   11   48 1    
    25   12   13 ar   
    26   12   77 1    
    27   13   14 ar   
    28   13   15 1    
    29   14   78 1    
    30   15   16 1    
    31   15   79 1    
    32   15   80 1    
    33   16   17 1    
    34   17   18 1    
    35   17   81 1    
    36   17   82 1    
    37   18   19 1    
    38   18   22 1    
    39   18   83 1    
    40   19   20 am   BACKBONE|DICT|INTERRES
    41   19   21 2    
    42   20   84 1    
    43   20   85 1    
    44   22   23 am   BACKBONE|DICT|INTERRES
    45   22   86 1    
    46   23   24 2    
    47   23   25 1    
    48   25   26 1    
    49   25   27 1    
    50   25   87 1    
    51   26   88 1    
    52   26   89 1    
    53   26   90 1    
    54   27   28 am   BACKBONE|DICT|INTERRES
    55   27   91 1    
    56   28   29 2    
    57   28   30 1    
    58   30   31 1    
    59   30   32 1    
    60   30   92 1    
    61   31   93 1    
    62   31   94 1    
    63   31   95 1    
    64   32   33 am   BACKBONE|DICT|INTERRES
    65   32   96 1    
    66   33   34 2    
    67   33   35 1    
    68   35   36 1    
    69   35   37 1    
    70   35   97 1    
    71   36   98 1    
    72   36   99 1    
    73   36  100 1    
    74   37   38 am   BACKBONE|DICT|INTERRES
    75   37  101 1    
    76   38   39 2    
    77   38   40 1    
    78   40   41 1    
    79   40   42 1    
    80   40  102 1    
    81   41  103 1    
    82   41  104 1    
    83   41  105 1    
    84   42   43 am   BACKBONE|DICT|INTERRES
    85   42  106 1    
    86   43   44 2    
    87   43   45 1    
    88   45   46 1    
    89   45   49 1    
    90   45  107 1    
    91   46   47 1    
    92   46  108 1    
    93   46  109 1    
    94   47   48 1    
    95   48  110 1    
    96   48  111 1    
    97   49   50 am   BACKBONE|DICT|INTERRES
    98   49  112 1    
    99   50   51 2    
   100   50   52 1    
   101   52   53 1    
   102   52   54 1    
   103   52  113 1    
   104   53  114 1    
   105   53  115 1    
   106   53  116 1    
   107   54   55 am   BACKBONE|DICT|INTERRES
   108   54  117 1    
   109   55   56 2    
   110   55   57 1    
   111   57   58 1    
   112   57   59 1    
   113   57  118 1    
   114   58  119 1    
   115   58  120 1    
   116   58  121 1    
   117   59   60 am   BACKBONE|DICT|INTERRES
   118   59  122 1    
   119   60   61 2    
   120   60   62 1    
   121   62   63 1    
   122   62   64 1    
   123   62  123 1    
   124   63  124 1    
   125   63  125 1    
   126   63  126 1    
   127   64   65 am   BACKBONE|DICT|INTERRES
   128   64  127 1    
   129   65   66 2    
@<TRIPOS>SUBSTRUCTURE
     1 UNK         1 GROUP             0       ****    0 ROOT    
