@<TRIPOS>MOLECULE
3R134
127   129    1
SMALL
USER_CHARGES


@<TRIPOS>ATOM
      1 CA         34.6792  -50.8514  -57.7984 C.3       0 UNK        -0.1968 
      2 C          34.0479  -50.1839  -56.5869 C.2       0 UNK         0.4852 
      3 O          34.0385  -50.7652  -55.5009 O.2       0 UNK        -0.5359 
      4 N          33.5384  -48.9546  -56.7493 N.am      1 UNK        -0.4300 
      5 CA         32.8406  -48.1911  -55.7052 C.3       1 UNK         0.0863 
      6 C6         32.0091  -47.0225  -56.2791 C.3       11 UNK        -0.0953 
      7 S7         32.9643  -45.8134  -57.2577 S.3       11 UNK        -0.2369 
      8 C8         33.3963  -44.5456  -56.0184 C.3       11 UNK         0.0226 
      9 C9         32.1870  -43.9421  -55.3125 C.ar      11 UNK        -0.0699 
     10 C10        32.0797  -44.0179  -53.9194 C.ar      11 UNK        -0.0804 
     11 C11        30.9955  -43.4347  -53.2559 C.ar      11 UNK        -0.0871 
     12 C12        30.0122  -42.7746  -53.9989 C.ar      11 UNK        -0.1008 
     13 C13        30.1050  -42.6930  -55.3913 C.ar      11 UNK        -0.0735 
     14 C14        31.1952  -43.2788  -56.0427 C.ar      11 UNK        -0.0945 
     15 C15        29.0513  -41.9301  -56.1815 C.3       11 UNK         0.0169 
     16 S16        27.4396  -42.7737  -56.1647 S.3       11 UNK        -0.2669 
     17 C17        26.4518  -41.5855  -57.1337 C.3       11 UNK        -0.0850 
     18 CA         25.0993  -42.1685  -57.6210 C.3       10 UNK         0.0855 
     19 C          24.2454  -41.0572  -58.3017 C.2       10 UNK         0.5543 
     20 N          23.9804  -41.1208  -59.6010 N.am      10 UNK        -0.7343 
     21 O          23.8159  -40.1198  -57.6338 O.2       10 UNK        -0.5027 
     22 N          25.2887  -43.3911  -58.4218 N.am      10 UNK        -0.4495 
     23 C          24.3235  -44.2677  -58.7305 C.2       10 UNK         0.4903 
     24 O          23.1499  -44.1519  -58.3760 O.2       10 UNK        -0.4860 
     25 CA         24.7292  -45.4807  -59.5873 C.3       9 UNK         0.0227 
     26 CB         24.4844  -45.1885  -61.0769 C.3       9 UNK        -0.1964 
     27 N          26.1230  -45.8962  -59.3957 N.am      9 UNK        -0.4231 
     28 C          26.5879  -46.4979  -58.2925 C.2       9 UNK         0.5014 
     29 O          25.8910  -46.7642  -57.3105 O.2       9 UNK        -0.5270 
     30 CA         28.0857  -46.8383  -58.2911 C.3       8 UNK         0.0284 
     31 CB         28.9162  -45.6319  -57.8228 C.3       8 UNK        -0.1977 
     32 N          28.3410  -47.9806  -57.4122 N.am      8 UNK        -0.4342 
     33 C          28.3706  -49.2570  -57.8240 C.2       8 UNK         0.5039 
     34 O          28.3067  -49.5896  -59.0087 O.2       8 UNK        -0.5547 
     35 CA         28.4902  -50.3636  -56.7560 C.3       7 UNK         0.0281 
     36 CB         29.9316  -50.8909  -56.6839 C.3       7 UNK        -0.1963 
     37 N          28.0593  -49.9356  -55.4230 N.am      7 UNK        -0.4444 
     38 C          26.7799  -49.7104  -55.0847 C.2       7 UNK         0.5104 
     39 O          25.8296  -49.9691  -55.8241 O.2       7 UNK        -0.5100 
     40 CA         26.4932  -49.0917  -53.7000 C.3       6 UNK         0.0396 
     41 CB         25.8961  -50.1480  -52.7559 C.3       6 UNK        -0.1801 
     42 N          27.6501  -48.4739  -53.0442 N.am      6 UNK        -0.4747 
     43 C          28.3874  -47.4608  -53.5245 C.2       6 UNK         0.5012 
     44 O          28.1582  -46.8981  -54.5938 O.2       6 UNK        -0.5003 
     45 CA         29.6296  -47.0541  -52.7063 C.3       5 UNK         0.0782 
     46 C46        29.3171  -45.8256  -51.8196 C.3       11 UNK        -0.0868 
     47 S47        30.8323  -45.1593  -51.0520 S.3       11 UNK        -0.2515 
     48 C48        30.9047  -43.4706  -51.7342 C.3       11 UNK         0.0199 
     49 N          30.2099  -48.1576  -51.9227 N.am      5 UNK        -0.4607 
     50 C          30.6513  -49.3206  -52.4178 C.2       4 UNK         0.5031 
     51 O          30.5195  -49.6648  -53.5935 O.2       4 UNK        -0.5119 
     52 CA         31.3311  -50.2754  -51.4365 C.3       4 UNK         0.0263 
     53 CB         30.4843  -51.5451  -51.2286 C.3       4 UNK        -0.1967 
     54 N          32.6447  -50.6128  -51.9756 N.am      4 UNK        -0.4237 
     55 C          33.6785  -51.0733  -51.2603 C.2       3 UNK         0.4908 
     56 O          33.6245  -51.3211  -50.0550 O.2       3 UNK        -0.5102 
     57 CA         35.0046  -51.2743  -52.0102 C.3       3 UNK         0.0241 
     58 CB         34.9841  -52.5819  -52.8189 C.3       3 UNK        -0.1971 
     59 N          35.3043  -50.1425  -52.8912 N.am      3 UNK        -0.4139 
     60 C          35.8133  -48.9746  -52.4630 C.2       2 UNK         0.5016 
     61 O          36.1492  -48.7650  -51.2967 O.2       2 UNK        -0.5319 
     62 CA         35.9799  -47.8408  -53.4955 C.3       2 UNK         0.0286 
     63 CB         37.4150  -47.8164  -54.0451 C.3       2 UNK        -0.1963 
     64 N          35.0400  -47.9407  -54.6125 N.am      2 UNK        -0.4790 
     65 C          33.7147  -47.7747  -54.5027 C.2       1 UNK         0.5024 
     66 O          33.1728  -47.3543  -53.4814 O.2       1 UNK        -0.4888 
     67 H67        35.7245  -51.0834  -57.5965 H         1 UNK         0.0892 
     68 H68        34.1605  -51.7829  -58.0231 H         1 UNK         0.0892 
     69 H69        34.6359  -50.2164  -58.6831 H         1 UNK         0.0892 
     70 H70        33.5960  -48.5011  -57.6508 H         1 UNK         0.3107 
     71 H71        32.1233  -48.8850  -55.2756 H         1 UNK         0.0773 
     72 H72        31.4485  -46.5153  -55.4943 H         1 UNK         0.0680 
     73 H73        31.2487  -47.4390  -56.9401 H         1 UNK         0.0680 
     74 H74        33.9423  -43.7455  -56.5195 H         1 UNK         0.0650 
     75 H75        34.0911  -44.9779  -55.2974 H         1 UNK         0.0650 
     76 H76        32.8437  -44.5252  -53.3454 H         1 UNK         0.1397 
     77 H77        29.1741  -42.3109  -53.4964 H         1 UNK         0.1363 
     78 H78        31.2805  -43.2131  -57.1188 H         1 UNK         0.1355 
     79 H79        28.9398  -40.9310  -55.7576 H         1 UNK         0.0707 
     80 H80        29.3723  -41.7944  -57.2155 H         1 UNK         0.0707 
     81 H81        26.2858  -40.7068  -56.5068 H         1 UNK         0.1034 
     82 H82        27.0407  -41.2433  -57.9870 H         1 UNK         0.1034 
     83 H83        24.5382  -42.4643  -56.7322 H         1 UNK         0.0482 
     84 H84        24.3263  -41.8873  -60.1548 H         1 UNK         0.3460 
     85 H85        23.4247  -40.3969  -60.0289 H         1 UNK         0.3460 
     86 H86        26.2281  -43.5723  -58.7399 H         1 UNK         0.2989 
     87 H87        24.0860  -46.3147  -59.2980 H         1 UNK         0.0559 
     88 H88        25.1163  -44.3780  -61.4421 H         1 UNK         0.0848 
     89 H89        23.4477  -44.8970  -61.2520 H         1 UNK         0.0848 
     90 H90        24.6775  -46.0682  -61.6913 H         1 UNK         0.0848 
     91 H91        26.7608  -45.7166  -60.1585 H         1 UNK         0.3144 
     92 H92        28.3859  -47.0789  -59.3132 H         1 UNK         0.0727 
     93 H93        28.6540  -44.7285  -58.3744 H         1 UNK         0.0790 
     94 H94        29.9796  -45.7978  -57.9837 H         1 UNK         0.0790 
     95 H95        28.7660  -45.4207  -56.7637 H         1 UNK         0.0790 
     96 H96        28.2968  -47.7826  -56.4166 H         1 UNK         0.3215 
     97 H97        27.8466  -51.1886  -57.0693 H         1 UNK         0.0863 
     98 H98        30.6328  -50.0992  -56.4291 H         1 UNK         0.0808 
     99 H99        30.2445  -51.3038  -57.6438 H         1 UNK         0.0808 
    100 H100       30.0332  -51.6815  -55.9402 H         1 UNK         0.0808 
    101 H101       28.7904  -49.7350  -54.7474 H         1 UNK         0.3118 
    102 H102       25.7493  -48.3069  -53.8511 H         1 UNK         0.0546 
    103 H103       26.6064  -50.9490  -52.5467 H         1 UNK         0.0828 
    104 H104       25.0082  -50.6070  -53.1934 H         1 UNK         0.0828 
    105 H105       25.5934  -49.7082  -51.8055 H         1 UNK         0.0828 
    106 H106       27.9383  -48.8818  -52.1666 H         1 UNK         0.3005 
    107 H107       30.3871  -46.7560  -53.4337 H         1 UNK         0.1257 
    108 H108       28.6138  -46.0896  -51.0277 H         1 UNK         0.0775 
    109 H109       28.8334  -45.0396  -52.4031 H         1 UNK         0.0775 
    110 H110       30.0343  -42.9143  -51.3824 H         1 UNK         0.0840 
    111 H111       31.7762  -42.9632  -51.3185 H         1 UNK         0.0840 
    112 H112       30.3696  -47.9532  -50.9468 H         1 UNK         0.2987 
    113 H113       31.4607  -49.7697  -50.4771 H         1 UNK         0.0785 
    114 H114       29.4902  -51.2954  -50.8560 H         1 UNK         0.0798 
    115 H115       30.9424  -52.2160  -50.5018 H         1 UNK         0.0798 
    116 H116       30.3555  -52.0990  -52.1596 H         1 UNK         0.0798 
    117 H117       32.7624  -50.4312  -52.9643 H         1 UNK         0.3079 
    118 H118       35.8006  -51.3573  -51.2668 H         1 UNK         0.0794 
    119 H119       34.8245  -53.4399  -52.1646 H         1 UNK         0.0786 
    120 H120       35.9289  -52.7417  -53.3387 H         1 UNK         0.0786 
    121 H121       34.1873  -52.5899  -53.5634 H         1 UNK         0.0786 
    122 H122       35.0280  -50.2398  -53.8644 H         1 UNK         0.3032 
    123 H123       35.7926  -46.8979  -52.9763 H         1 UNK         0.1094 
    124 H124       38.1400  -47.7146  -53.2362 H         1 UNK         0.0794 
    125 H125       37.6570  -48.7321  -54.5861 H         1 UNK         0.0794 
    126 H126       37.5670  -46.9749  -54.7214 H         1 UNK         0.0794 
    127 H127       35.4044  -48.2806  -55.4907 H         1 UNK         0.3016 
@<TRIPOS>BOND
     1    1    2 1    
     2    1   67 1    
     3    1   68 1    
     4    1   69 1    
     5    2    3 2    
     6    2    4 am   BACKBONE|DICT|INTERRES
     7    4    5 1    
     8    4   70 1    
     9    5    6 1    
    10    5   65 1    
    11    5   71 1    
    12    6    7 1    
    13    6   72 1    
    14    6   73 1    
    15    7    8 1    
    16    8    9 1    
    17    8   74 1    
    18    8   75 1    
    19    9   10 ar   
    20    9   14 ar   
    21   10   11 ar   
    22   10   76 1    
    23   11   12 ar   
    24   11   48 1    
    25   12   13 ar   
    26   12   77 1    
    27   13   14 ar   
    28   13   15 1    
    29   14   78 1    
    30   15   16 1    
    31   15   79 1    
    32   15   80 1    
    33   16   17 1    
    34   17   18 1    
    35   17   81 1    
    36   17   82 1    
    37   18   19 1    
    38   18   22 1    
    39   18   83 1    
    40   19   20 am   BACKBONE|DICT|INTERRES
    41   19   21 2    
    42   20   84 1    
    43   20   85 1    
    44   22   23 am   BACKBONE|DICT|INTERRES
    45   22   86 1    
    46   23   24 2    
    47   23   25 1    
    48   25   26 1    
    49   25   27 1    
    50   25   87 1    
    51   26   88 1    
    52   26   89 1    
    53   26   90 1    
    54   27   28 am   BACKBONE|DICT|INTERRES
    55   27   91 1    
    56   28   29 2    
    57   28   30 1    
    58   30   31 1    
    59   30   32 1    
    60   30   92 1    
    61   31   93 1    
    62   31   94 1    
    63   31   95 1    
    64   32   33 am   BACKBONE|DICT|INTERRES
    65   32   96 1    
    66   33   34 2    
    67   33   35 1    
    68   35   36 1    
    69   35   37 1    
    70   35   97 1    
    71   36   98 1    
    72   36   99 1    
    73   36  100 1    
    74   37   38 am   BACKBONE|DICT|INTERRES
    75   37  101 1    
    76   38   39 2    
    77   38   40 1    
    78   40   41 1    
    79   40   42 1    
    80   40  102 1    
    81   41  103 1    
    82   41  104 1    
    83   41  105 1    
    84   42   43 am   BACKBONE|DICT|INTERRES
    85   42  106 1    
    86   43   44 2    
    87   43   45 1    
    88   45   46 1    
    89   45   49 1    
    90   45  107 1    
    91   46   47 1    
    92   46  108 1    
    93   46  109 1    
    94   47   48 1    
    95   48  110 1    
    96   48  111 1    
    97   49   50 am   BACKBONE|DICT|INTERRES
    98   49  112 1    
    99   50   51 2    
   100   50   52 1    
   101   52   53 1    
   102   52   54 1    
   103   52  113 1    
   104   53  114 1    
   105   53  115 1    
   106   53  116 1    
   107   54   55 am   BACKBONE|DICT|INTERRES
   108   54  117 1    
   109   55   56 2    
   110   55   57 1    
   111   57   58 1    
   112   57   59 1    
   113   57  118 1    
   114   58  119 1    
   115   58  120 1    
   116   58  121 1    
   117   59   60 am   BACKBONE|DICT|INTERRES
   118   59  122 1    
   119   60   61 2    
   120   60   62 1    
   121   62   63 1    
   122   62   64 1    
   123   62  123 1    
   124   63  124 1    
   125   63  125 1    
   126   63  126 1    
   127   64   65 am   BACKBONE|DICT|INTERRES
   128   64  127 1    
   129   65   66 2    
@<TRIPOS>SUBSTRUCTURE
     1 UNK         1 GROUP             0       ****    0 ROOT    
