@<TRIPOS>MOLECULE
3R134
127   129    1
SMALL
USER_CHARGES


@<TRIPOS>ATOM
      1 CA         35.9740  -47.7460  -51.5019 C.3       0 UNK        -0.1968 
      2 C          34.8433  -47.1329  -52.3143 C.2       0 UNK         0.4852 
      3 O          34.9014  -47.1517  -53.5428 O.2       0 UNK        -0.5359 
      4 N          33.8214  -46.5967  -51.6370 N.am      1 UNK        -0.4300 
      5 CA         32.6245  -46.0004  -52.2309 C.3       1 UNK         0.0863 
      6 C6         32.0576  -44.9030  -51.2906 C.3       11 UNK        -0.0953 
      7 S7         30.6493  -43.9602  -51.9674 S.3       11 UNK        -0.2369 
      8 C8         31.4458  -42.4688  -52.6491 C.3       11 UNK         0.0226 
      9 C9         31.7096  -42.5996  -54.1428 C.ar      11 UNK        -0.0699 
     10 C10        33.0002  -42.8272  -54.6274 C.ar      11 UNK        -0.0804 
     11 C11        33.2364  -42.9091  -56.0041 C.ar      11 UNK        -0.0871 
     12 C12        32.1609  -42.7937  -56.8930 C.ar      11 UNK        -0.1008 
     13 C13        30.8578  -42.5849  -56.4259 C.ar      11 UNK        -0.0735 
     14 C14        30.6514  -42.4617  -55.0451 C.ar      11 UNK        -0.0945 
     15 C15        29.7140  -42.4889  -57.4430 C.3       11 UNK         0.0169 
     16 S16        28.0391  -42.7535  -56.7518 S.3       11 UNK        -0.2669 
     17 C17        27.2057  -43.7018  -58.0711 C.3       11 UNK        -0.0850 
     18 CA         25.8479  -44.2956  -57.5965 C.3       10 UNK         0.0855 
     19 C          25.0207  -44.8947  -58.7721 C.2       10 UNK         0.5543 
     20 N          24.3543  -46.0329  -58.6125 N.am      10 UNK        -0.7343 
     21 O          24.9621  -44.3070  -59.8496 O.2       10 UNK        -0.5027 
     22 N          26.0294  -45.2488  -56.4887 N.am      10 UNK        -0.4495 
     23 C          25.3349  -45.2533  -55.3459 C.2       10 UNK         0.4903 
     24 O          24.4732  -44.4174  -55.0664 O.2       10 UNK        -0.4860 
     25 CA         25.6555  -46.3900  -54.3493 C.3       9 UNK         0.0227 
     26 CB         24.6733  -46.4293  -53.1601 C.3       9 UNK        -0.1964 
     27 N          25.7496  -47.7263  -54.9546 N.am      9 UNK        -0.4231 
     28 C          24.8601  -48.3421  -55.7469 C.2       9 UNK         0.5014 
     29 O          23.8460  -47.8021  -56.1933 O.2       9 UNK        -0.5270 
     30 CA         25.1731  -49.8108  -56.1089 C.3       8 UNK         0.0284 
     31 CB         24.0648  -50.4619  -56.9579 C.3       8 UNK        -0.1977 
     32 N          26.4474  -49.9389  -56.8180 N.am      8 UNK        -0.4342 
     33 C          27.6587  -49.8569  -56.2562 C.2       8 UNK         0.5039 
     34 O          27.8366  -49.7346  -55.0399 O.2       8 UNK        -0.5547 
     35 CA         28.8811  -49.8107  -57.1952 C.3       7 UNK         0.0281 
     36 CB         28.5496  -49.9881  -58.6941 C.3       7 UNK        -0.1963 
     37 N          29.6299  -48.5689  -56.9793 N.am      7 UNK        -0.4444 
     38 C          29.1342  -47.3214  -57.0133 C.2       7 UNK         0.5104 
     39 O          27.9973  -47.0420  -57.3937 O.2       7 UNK        -0.5100 
     40 CA         30.0167  -46.1950  -56.4626 C.3       6 UNK         0.0396 
     41 CB         29.4729  -45.7468  -55.1001 C.3       6 UNK        -0.1801 
     42 N          31.4146  -46.5902  -56.3037 N.am      6 UNK        -0.4747 
     43 C          32.3141  -46.5757  -57.2941 C.2       6 UNK         0.5012 
     44 O          32.0494  -46.2444  -58.4512 O.2       6 UNK        -0.5003 
     45 CA         33.7411  -47.0480  -56.9403 C.3       5 UNK         0.0782 
     46 C46        34.6037  -45.8933  -56.3722 C.3       11 UNK        -0.0868 
     47 S47        34.9095  -44.5458  -57.5635 S.3       11 UNK        -0.2515 
     48 C48        34.6624  -43.0667  -56.5255 C.3       11 UNK         0.0199 
     49 N          33.7584  -48.2100  -56.0377 N.am      5 UNK        -0.4607 
     50 C          33.2006  -49.4010  -56.3024 C.2       4 UNK         0.5031 
     51 O          32.5564  -49.6341  -57.3250 O.2       4 UNK        -0.5119 
     52 CA         33.3498  -50.5302  -55.2746 C.3       4 UNK         0.0263 
     53 CB         34.4543  -50.3301  -54.2216 C.3       4 UNK        -0.1967 
     54 N          32.0652  -50.7211  -54.6104 N.am      4 UNK        -0.4237 
     55 C          31.5312  -51.9037  -54.2796 C.2       3 UNK         0.4908 
     56 O          32.0819  -52.9825  -54.5062 O.2       3 UNK        -0.5102 
     57 CA         30.1389  -51.8988  -53.6125 C.3       3 UNK         0.0241 
     58 CB         30.0051  -52.9732  -52.5116 C.3       3 UNK        -0.1971 
     59 N          29.7045  -50.5805  -53.1314 N.am      3 UNK        -0.4139 
     60 C          30.2345  -49.8568  -52.1347 C.2       2 UNK         0.5016 
     61 O          31.1545  -50.2353  -51.4061 O.2       2 UNK        -0.5319 
     62 CA         29.6383  -48.4537  -51.9301 C.3       2 UNK         0.0286 
     63 CB         28.6719  -48.4408  -50.7356 C.3       2 UNK        -0.1963 
     64 N          30.6709  -47.4303  -51.7300 N.am      2 UNK        -0.4790 
     65 C          31.6328  -47.1230  -52.6134 C.2       1 UNK         0.5024 
     66 O          31.7454  -47.6824  -53.7067 O.2       1 UNK        -0.4888 
     67 H67        35.8014  -47.6600  -50.4293 H         1 UNK         0.0892 
     68 H68        36.9143  -47.2477  -51.7357 H         1 UNK         0.0892 
     69 H69        36.0790  -48.8028  -51.7455 H         1 UNK         0.0892 
     70 H70        33.8305  -46.6406  -50.6280 H         1 UNK         0.3107 
     71 H71        32.9115  -45.5085  -53.1630 H         1 UNK         0.0773 
     72 H72        31.7468  -45.3317  -50.3365 H         1 UNK         0.0680 
     73 H73        32.8515  -44.1992  -51.0371 H         1 UNK         0.0680 
     74 H74        30.7821  -41.6194  -52.4813 H         1 UNK         0.0650 
     75 H75        32.3642  -42.2392  -52.1074 H         1 UNK         0.0650 
     76 H76        33.8235  -42.9161  -53.9318 H         1 UNK         0.1397 
     77 H77        32.3428  -42.8684  -57.9567 H         1 UNK         0.1363 
     78 H78        29.6618  -42.2783  -54.6525 H         1 UNK         0.1355 
     79 H79        29.8897  -43.2131  -58.2396 H         1 UNK         0.0707 
     80 H80        29.7430  -41.5049  -57.9123 H         1 UNK         0.0707 
     81 H81        27.8634  -44.4990  -58.4210 H         1 UNK         0.1034 
     82 H82        27.0613  -43.0283  -58.9180 H         1 UNK         0.1034 
     83 H83        25.2475  -43.4544  -57.2461 H         1 UNK         0.0482 
     84 H84        23.8188  -46.3994  -59.3827 H         1 UNK         0.3460 
     85 H85        24.3402  -46.5089  -57.7178 H         1 UNK         0.3460 
     86 H86        26.6934  -45.9975  -56.6778 H         1 UNK         0.2989 
     87 H87        26.6444  -46.1688  -53.9464 H         1 UNK         0.0559 
     88 H88        24.9518  -47.1985  -52.4398 H         1 UNK         0.0848 
     89 H89        23.6531  -46.6310  -53.4889 H         1 UNK         0.0848 
     90 H90        24.6628  -45.4782  -52.6262 H         1 UNK         0.0848 
     91 H91        26.5777  -48.2679  -54.7210 H         1 UNK         0.3144 
     92 H92        25.2389  -50.3654  -55.1702 H         1 UNK         0.0727 
     93 H93        24.2790  -51.5131  -57.1519 H         1 UNK         0.0790 
     94 H94        23.9434  -49.9603  -57.9189 H         1 UNK         0.0790 
     95 H95        23.1035  -50.4192  -56.4441 H         1 UNK         0.0790 
     96 H96        26.3974  -49.9656  -57.8262 H         1 UNK         0.3215 
     97 H97        29.5351  -50.6307  -56.8947 H         1 UNK         0.0863 
     98 H98        29.4610  -49.9842  -59.2924 H         1 UNK         0.0808 
     99 H99        27.9082  -49.1928  -59.0760 H         1 UNK         0.0808 
    100 H100       28.0538  -50.9416  -58.8814 H         1 UNK         0.0808 
    101 H101       30.5973  -48.6789  -56.7055 H         1 UNK         0.3118 
    102 H102       29.9623  -45.3521  -57.1517 H         1 UNK         0.0546 
    103 H103       28.5385  -45.2003  -55.2114 H         1 UNK         0.0828 
    104 H104       30.1734  -45.0879  -54.5938 H         1 UNK         0.0828 
    105 H105       29.2772  -46.5917  -54.4428 H         1 UNK         0.0828 
    106 H106       31.6953  -46.9252  -55.3843 H         1 UNK         0.3005 
    107 H107       34.1989  -47.3788  -57.8752 H         1 UNK         0.1257 
    108 H108       35.5786  -46.2761  -56.0666 H         1 UNK         0.0775 
    109 H109       34.1449  -45.4923  -55.4672 H         1 UNK         0.0775 
    110 H110       35.3775  -43.0964  -55.7017 H         1 UNK         0.0840 
    111 H111       34.9163  -42.1839  -57.1138 H         1 UNK         0.0840 
    112 H112       34.2052  -48.0569  -55.1362 H         1 UNK         0.2987 
    113 H113       33.6026  -51.4196  -55.8561 H         1 UNK         0.0785 
    114 H114       34.1412  -49.6288  -53.4510 H         1 UNK         0.0798 
    115 H115       35.3828  -49.9672  -54.6645 H         1 UNK         0.0798 
    116 H116       34.6836  -51.2714  -53.7221 H         1 UNK         0.0798 
    117 H117       31.5659  -49.8727  -54.3731 H         1 UNK         0.3079 
    118 H118       29.4369  -52.1618  -54.4051 H         1 UNK         0.0794 
    119 H119       30.7383  -52.8346  -51.7166 H         1 UNK         0.0786 
    120 H120       30.1579  -53.9730  -52.9197 H         1 UNK         0.0786 
    121 H121       29.0129  -52.9580  -52.0607 H         1 UNK         0.0786 
    122 H122       28.9543  -50.1682  -53.6882 H         1 UNK         0.3032 
    123 H123       29.0730  -48.1857  -52.8241 H         1 UNK         0.1094 
    124 H124       28.1937  -47.4677  -50.6213 H         1 UNK         0.0794 
    125 H125       27.8776  -49.1767  -50.8687 H         1 UNK         0.0794 
    126 H126       29.1829  -48.6781  -49.8015 H         1 UNK         0.0794 
    127 H127       30.6476  -46.9339  -50.8519 H         1 UNK         0.3016 
@<TRIPOS>BOND
     1    1    2 1    
     2    1   67 1    
     3    1   68 1    
     4    1   69 1    
     5    2    3 2    
     6    2    4 am   BACKBONE|DICT|INTERRES
     7    4    5 1    
     8    4   70 1    
     9    5    6 1    
    10    5   65 1    
    11    5   71 1    
    12    6    7 1    
    13    6   72 1    
    14    6   73 1    
    15    7    8 1    
    16    8    9 1    
    17    8   74 1    
    18    8   75 1    
    19    9   10 ar   
    20    9   14 ar   
    21   10   11 ar   
    22   10   76 1    
    23   11   12 ar   
    24   11   48 1    
    25   12   13 ar   
    26   12   77 1    
    27   13   14 ar   
    28   13   15 1    
    29   14   78 1    
    30   15   16 1    
    31   15   79 1    
    32   15   80 1    
    33   16   17 1    
    34   17   18 1    
    35   17   81 1    
    36   17   82 1    
    37   18   19 1    
    38   18   22 1    
    39   18   83 1    
    40   19   20 am   BACKBONE|DICT|INTERRES
    41   19   21 2    
    42   20   84 1    
    43   20   85 1    
    44   22   23 am   BACKBONE|DICT|INTERRES
    45   22   86 1    
    46   23   24 2    
    47   23   25 1    
    48   25   26 1    
    49   25   27 1    
    50   25   87 1    
    51   26   88 1    
    52   26   89 1    
    53   26   90 1    
    54   27   28 am   BACKBONE|DICT|INTERRES
    55   27   91 1    
    56   28   29 2    
    57   28   30 1    
    58   30   31 1    
    59   30   32 1    
    60   30   92 1    
    61   31   93 1    
    62   31   94 1    
    63   31   95 1    
    64   32   33 am   BACKBONE|DICT|INTERRES
    65   32   96 1    
    66   33   34 2    
    67   33   35 1    
    68   35   36 1    
    69   35   37 1    
    70   35   97 1    
    71   36   98 1    
    72   36   99 1    
    73   36  100 1    
    74   37   38 am   BACKBONE|DICT|INTERRES
    75   37  101 1    
    76   38   39 2    
    77   38   40 1    
    78   40   41 1    
    79   40   42 1    
    80   40  102 1    
    81   41  103 1    
    82   41  104 1    
    83   41  105 1    
    84   42   43 am   BACKBONE|DICT|INTERRES
    85   42  106 1    
    86   43   44 2    
    87   43   45 1    
    88   45   46 1    
    89   45   49 1    
    90   45  107 1    
    91   46   47 1    
    92   46  108 1    
    93   46  109 1    
    94   47   48 1    
    95   48  110 1    
    96   48  111 1    
    97   49   50 am   BACKBONE|DICT|INTERRES
    98   49  112 1    
    99   50   51 2    
   100   50   52 1    
   101   52   53 1    
   102   52   54 1    
   103   52  113 1    
   104   53  114 1    
   105   53  115 1    
   106   53  116 1    
   107   54   55 am   BACKBONE|DICT|INTERRES
   108   54  117 1    
   109   55   56 2    
   110   55   57 1    
   111   57   58 1    
   112   57   59 1    
   113   57  118 1    
   114   58  119 1    
   115   58  120 1    
   116   58  121 1    
   117   59   60 am   BACKBONE|DICT|INTERRES
   118   59  122 1    
   119   60   61 2    
   120   60   62 1    
   121   62   63 1    
   122   62   64 1    
   123   62  123 1    
   124   63  124 1    
   125   63  125 1    
   126   63  126 1    
   127   64   65 am   BACKBONE|DICT|INTERRES
   128   64  127 1    
   129   65   66 2    
@<TRIPOS>SUBSTRUCTURE
     1 UNK         1 GROUP             0       ****    0 ROOT    
