@<TRIPOS>MOLECULE
3R134
127   129    1
SMALL
USER_CHARGES


@<TRIPOS>ATOM
      1 CA         31.5713  -44.6965  -49.7109 C.3       0 UNK        -0.1968 
      2 C          32.9805  -44.6486  -50.2835 C.2       0 UNK         0.4852 
      3 O          33.6386  -43.6105  -50.1986 O.2       0 UNK        -0.5359 
      4 N          33.4420  -45.7568  -50.8690 N.am      1 UNK        -0.4300 
      5 CA         34.7532  -45.8982  -51.5080 C.3       1 UNK         0.0863 
      6 C6         34.7599  -45.4229  -52.9911 C.3       11 UNK        -0.0953 
      7 S7         33.3381  -46.0003  -53.9867 S.3       11 UNK        -0.2369 
      8 C8         32.4137  -44.4357  -54.1177 C.3       11 UNK         0.0226 
      9 C9         30.9912  -44.6678  -54.5922 C.ar      11 UNK        -0.0699 
     10 C10        29.9828  -44.9417  -53.6630 C.ar      11 UNK        -0.0804 
     11 C11        28.6798  -45.2116  -54.0915 C.ar      11 UNK        -0.0871 
     12 C12        28.3812  -45.1515  -55.4553 C.ar      11 UNK        -0.1008 
     13 C13        29.3742  -44.8445  -56.3893 C.ar      11 UNK        -0.0735 
     14 C14        30.6814  -44.6111  -55.9541 C.ar      11 UNK        -0.0945 
     15 C15        29.0255  -44.7732  -57.8655 C.3       11 UNK         0.0169 
     16 S16        28.5944  -43.0753  -58.3520 S.3       11 UNK        -0.2669 
     17 C17        27.5349  -43.3847  -59.8075 C.3       11 UNK        -0.0850 
     18 CA         26.0239  -43.1985  -59.4999 C.3       10 UNK         0.0855 
     19 C          25.1574  -43.3753  -60.7825 C.2       10 UNK         0.5543 
     20 N          24.1682  -44.2614  -60.8135 N.am      10 UNK        -0.7343 
     21 O          25.3853  -42.6849  -61.7727 O.2       10 UNK        -0.5027 
     22 N          25.5843  -44.0190  -58.3588 N.am      10 UNK        -0.4495 
     23 C          24.5661  -43.7109  -57.5470 C.2       10 UNK         0.4903 
     24 O          23.9154  -42.6678  -57.6319 O.2       10 UNK        -0.4860 
     25 CA         24.2195  -44.7488  -56.4592 C.3       9 UNK         0.0227 
     26 CB         22.7933  -44.5646  -55.8989 C.3       9 UNK        -0.1964 
     27 N          24.4239  -46.1433  -56.8774 N.am      9 UNK        -0.4231 
     28 C          23.8747  -46.7749  -57.9246 C.2       9 UNK         0.5014 
     29 O          23.1688  -46.2241  -58.7720 O.2       9 UNK        -0.5270 
     30 CA         24.2030  -48.2747  -58.0537 C.3       8 UNK         0.0284 
     31 CB         23.1145  -49.0381  -58.8309 C.3       8 UNK        -0.1977 
     32 N          25.4977  -48.5090  -58.6971 N.am      8 UNK        -0.4342 
     33 C          26.6916  -48.2076  -58.1741 C.2       8 UNK         0.5039 
     34 O          26.8449  -47.6725  -57.0712 O.2       8 UNK        -0.5547 
     35 CA         27.9187  -48.5574  -59.0241 C.3       7 UNK         0.0281 
     36 CB         27.9909  -47.7121  -60.3111 C.3       7 UNK        -0.1963 
     37 N          29.1048  -48.3430  -58.2035 N.am      7 UNK        -0.4444 
     38 C          30.3186  -48.8613  -58.4107 C.2       7 UNK         0.5104 
     39 O          30.6105  -49.5497  -59.3893 O.2       7 UNK        -0.5100 
     40 CA         31.3962  -48.5730  -57.3485 C.3       6 UNK         0.0396 
     41 CB         32.3593  -47.4794  -57.8367 C.3       6 UNK        -0.1801 
     42 N          30.8656  -48.1906  -56.0352 N.am      6 UNK        -0.4747 
     43 C          30.2295  -49.0236  -55.1997 C.2       6 UNK         0.5012 
     44 O          29.9531  -50.1939  -55.4708 O.2       6 UNK        -0.5003 
     45 CA         29.8643  -48.4664  -53.8193 C.3       5 UNK         0.0782 
     46 C46        28.3339  -48.2919  -53.6474 C.3       11 UNK        -0.0868 
     47 S47        27.9478  -47.1830  -52.2499 S.3       11 UNK        -0.2515 
     48 C48        27.5982  -45.5987  -53.0897 C.3       11 UNK         0.0199 
     49 N          30.4536  -49.3762  -52.8449 N.am      5 UNK        -0.4607 
     50 C          31.1933  -49.0034  -51.7971 C.2       4 UNK         0.5031 
     51 O          31.3337  -47.8399  -51.4182 O.2       4 UNK        -0.5119 
     52 CA         32.0037  -50.1097  -51.1119 C.3       4 UNK         0.0263 
     53 CB         31.1874  -51.3788  -50.7814 C.3       4 UNK        -0.1967 
     54 N          33.2060  -50.3721  -51.9091 N.am      4 UNK        -0.4237 
     55 C          33.3028  -50.9844  -53.1010 C.2       3 UNK         0.4908 
     56 O          32.3933  -51.6454  -53.6022 O.2       3 UNK        -0.5102 
     57 CA         34.6033  -50.7883  -53.9104 C.3       3 UNK         0.0241 
     58 CB         34.2841  -50.2971  -55.3349 C.3       3 UNK        -0.1971 
     59 N          35.5290  -49.8329  -53.2969 N.am      3 UNK        -0.4139 
     60 C          36.4051  -50.1125  -52.3238 C.2       2 UNK         0.5016 
     61 O          36.5992  -51.2446  -51.8808 O.2       2 UNK        -0.5319 
     62 CA         37.1653  -48.9188  -51.7130 C.3       2 UNK         0.0286 
     63 CB         38.5668  -48.8027  -52.3337 C.3       2 UNK        -0.1963 
     64 N          36.4747  -47.6249  -51.8360 N.am      2 UNK        -0.4790 
     65 C          35.2762  -47.3330  -51.3069 C.2       1 UNK         0.5024 
     66 O          34.6068  -48.1523  -50.6741 O.2       1 UNK        -0.4888 
     67 H67        30.9458  -43.9446  -50.1911 H         1 UNK         0.0892 
     68 H68        31.5931  -44.4910  -48.6411 H         1 UNK         0.0892 
     69 H69        31.1033  -45.6695  -49.8593 H         1 UNK         0.0892 
     70 H70        32.8606  -46.5909  -50.9137 H         1 UNK         0.3107 
     71 H71        35.4626  -45.2744  -50.9598 H         1 UNK         0.0773 
     72 H72        34.7739  -44.3321  -53.0031 H         1 UNK         0.0680 
     73 H73        35.6768  -45.7109  -53.5068 H         1 UNK         0.0680 
     74 H74        32.9381  -43.7638  -54.7988 H         1 UNK         0.0650 
     75 H75        32.3936  -43.9365  -53.1481 H         1 UNK         0.0650 
     76 H76        30.2220  -44.9971  -52.6094 H         1 UNK         0.1397 
     77 H77        27.3748  -45.3520  -55.7948 H         1 UNK         0.1363 
     78 H78        31.4553  -44.3815  -56.6739 H         1 UNK         0.1355 
     79 H79        29.8556  -45.1291  -58.4771 H         1 UNK         0.0707 
     80 H80        28.1854  -45.4369  -58.0666 H         1 UNK         0.0707 
     81 H81        27.7301  -44.3775  -60.2124 H         1 UNK         0.1034 
     82 H82        27.8457  -42.6856  -60.5864 H         1 UNK         0.1034 
     83 H83        25.8958  -42.1526  -59.2140 H         1 UNK         0.0482 
     84 H84        23.6205  -44.3524  -61.6540 H         1 UNK         0.3460 
     85 H85        23.9405  -44.8303  -60.0051 H         1 UNK         0.3460 
     86 H86        26.0498  -44.9038  -58.2322 H         1 UNK         0.2989 
     87 H87        24.9194  -44.5709  -55.6416 H         1 UNK         0.0559 
     88 H88        22.6649  -43.5715  -55.4665 H         1 UNK         0.0848 
     89 H89        22.5792  -45.2872  -55.1116 H         1 UNK         0.0848 
     90 H90        22.0373  -44.6815  -56.6763 H         1 UNK         0.0848 
     91 H91        25.0980  -46.6765  -56.3380 H         1 UNK         0.3144 
     92 H92        24.2428  -48.6943  -57.0459 H         1 UNK         0.0727 
     93 H93        23.3043  -50.1116  -58.8299 H         1 UNK         0.0790 
     94 H94        23.0496  -48.7092  -59.8690 H         1 UNK         0.0790 
     95 H95        22.1334  -48.8840  -58.3794 H         1 UNK         0.0790 
     96 H96        25.4661  -48.9226  -59.6180 H         1 UNK         0.3215 
     97 H97        27.8565  -49.6166  -59.2831 H         1 UNK         0.0863 
     98 H98        27.0993  -47.8402  -60.9257 H         1 UNK         0.0808 
     99 H99        28.8433  -47.9994  -60.9267 H         1 UNK         0.0808 
    100 H100       28.0868  -46.6510  -60.0922 H         1 UNK         0.0808 
    101 H101       28.9149  -47.8469  -57.3405 H         1 UNK         0.3118 
    102 H102       31.9706  -49.4926  -57.2193 H         1 UNK         0.0546 
    103 H103       33.1650  -47.3092  -57.1221 H         1 UNK         0.0828 
    104 H104       31.8469  -46.5314  -57.9985 H         1 UNK         0.0828 
    105 H105       32.8224  -47.7628  -58.7828 H         1 UNK         0.0828 
    106 H106       31.0461  -47.2406  -55.7387 H         1 UNK         0.3005 
    107 H107       30.3526  -47.4978  -53.7271 H         1 UNK         0.1257 
    108 H108       27.8529  -49.2565  -53.4771 H         1 UNK         0.0775 
    109 H109       27.8755  -47.8873  -54.5514 H         1 UNK         0.0775 
    110 H110       26.6255  -45.6705  -53.5790 H         1 UNK         0.0840 
    111 H111       27.5052  -44.8124  -52.3394 H         1 UNK         0.0840 
    112 H112       30.4979  -50.3443  -53.1420 H         1 UNK         0.2987 
    113 H113       32.3560  -49.7008  -50.1634 H         1 UNK         0.0785 
    114 H114       31.8068  -52.1220  -50.2794 H         1 UNK         0.0798 
    115 H115       30.7519  -51.8514  -51.6611 H         1 UNK         0.0798 
    116 H116       30.3634  -51.1377  -50.1089 H         1 UNK         0.0798 
    117 H117       34.0041  -49.8246  -51.6045 H         1 UNK         0.3079 
    118 H118       35.0904  -51.7630  -53.9833 H         1 UNK         0.0794 
    119 H119       33.7656  -49.3372  -55.3222 H         1 UNK         0.0786 
    120 H120       33.6440  -51.0054  -55.8630 H         1 UNK         0.0786 
    121 H121       35.1909  -50.1815  -55.9289 H         1 UNK         0.0786 
    122 H122       35.4435  -48.8700  -53.5896 H         1 UNK         0.3032 
    123 H123       37.2795  -49.1297  -50.6471 H         1 UNK         0.1094 
    124 H124       38.5197  -48.5627  -53.3967 H         1 UNK         0.0794 
    125 H125       39.1583  -48.0316  -51.8397 H         1 UNK         0.0794 
    126 H126       39.1165  -49.7402  -52.2358 H         1 UNK         0.0794 
    127 H127       36.9749  -46.8987  -52.3294 H         1 UNK         0.3016 
@<TRIPOS>BOND
     1    1    2 1    
     2    1   67 1    
     3    1   68 1    
     4    1   69 1    
     5    2    3 2    
     6    2    4 am   BACKBONE|DICT|INTERRES
     7    4    5 1    
     8    4   70 1    
     9    5    6 1    
    10    5   65 1    
    11    5   71 1    
    12    6    7 1    
    13    6   72 1    
    14    6   73 1    
    15    7    8 1    
    16    8    9 1    
    17    8   74 1    
    18    8   75 1    
    19    9   10 ar   
    20    9   14 ar   
    21   10   11 ar   
    22   10   76 1    
    23   11   12 ar   
    24   11   48 1    
    25   12   13 ar   
    26   12   77 1    
    27   13   14 ar   
    28   13   15 1    
    29   14   78 1    
    30   15   16 1    
    31   15   79 1    
    32   15   80 1    
    33   16   17 1    
    34   17   18 1    
    35   17   81 1    
    36   17   82 1    
    37   18   19 1    
    38   18   22 1    
    39   18   83 1    
    40   19   20 am   BACKBONE|DICT|INTERRES
    41   19   21 2    
    42   20   84 1    
    43   20   85 1    
    44   22   23 am   BACKBONE|DICT|INTERRES
    45   22   86 1    
    46   23   24 2    
    47   23   25 1    
    48   25   26 1    
    49   25   27 1    
    50   25   87 1    
    51   26   88 1    
    52   26   89 1    
    53   26   90 1    
    54   27   28 am   BACKBONE|DICT|INTERRES
    55   27   91 1    
    56   28   29 2    
    57   28   30 1    
    58   30   31 1    
    59   30   32 1    
    60   30   92 1    
    61   31   93 1    
    62   31   94 1    
    63   31   95 1    
    64   32   33 am   BACKBONE|DICT|INTERRES
    65   32   96 1    
    66   33   34 2    
    67   33   35 1    
    68   35   36 1    
    69   35   37 1    
    70   35   97 1    
    71   36   98 1    
    72   36   99 1    
    73   36  100 1    
    74   37   38 am   BACKBONE|DICT|INTERRES
    75   37  101 1    
    76   38   39 2    
    77   38   40 1    
    78   40   41 1    
    79   40   42 1    
    80   40  102 1    
    81   41  103 1    
    82   41  104 1    
    83   41  105 1    
    84   42   43 am   BACKBONE|DICT|INTERRES
    85   42  106 1    
    86   43   44 2    
    87   43   45 1    
    88   45   46 1    
    89   45   49 1    
    90   45  107 1    
    91   46   47 1    
    92   46  108 1    
    93   46  109 1    
    94   47   48 1    
    95   48  110 1    
    96   48  111 1    
    97   49   50 am   BACKBONE|DICT|INTERRES
    98   49  112 1    
    99   50   51 2    
   100   50   52 1    
   101   52   53 1    
   102   52   54 1    
   103   52  113 1    
   104   53  114 1    
   105   53  115 1    
   106   53  116 1    
   107   54   55 am   BACKBONE|DICT|INTERRES
   108   54  117 1    
   109   55   56 2    
   110   55   57 1    
   111   57   58 1    
   112   57   59 1    
   113   57  118 1    
   114   58  119 1    
   115   58  120 1    
   116   58  121 1    
   117   59   60 am   BACKBONE|DICT|INTERRES
   118   59  122 1    
   119   60   61 2    
   120   60   62 1    
   121   62   63 1    
   122   62   64 1    
   123   62  123 1    
   124   63  124 1    
   125   63  125 1    
   126   63  126 1    
   127   64   65 am   BACKBONE|DICT|INTERRES
   128   64  127 1    
   129   65   66 2    
@<TRIPOS>SUBSTRUCTURE
     1 UNK         1 GROUP             0       ****    0 ROOT    
