@<TRIPOS>MOLECULE
3R134
127   129    1
SMALL
USER_CHARGES


@<TRIPOS>ATOM
      1 CA         32.8443  -47.9273  -47.7414 C.3       0 UNK        -0.1968 
      2 C          34.0558  -47.8181  -48.6560 C.2       0 UNK         0.4852 
      3 O          35.0464  -48.5205  -48.4456 O.2       0 UNK        -0.5359 
      4 N          33.9863  -46.9369  -49.6614 N.am      1 UNK        -0.4300 
      5 CA         35.0106  -46.7513  -50.6932 C.3       1 UNK         0.0863 
      6 C6         34.8870  -45.3597  -51.3686 C.3       11 UNK        -0.0953 
      7 S7         33.2550  -45.0195  -52.1180 S.3       11 UNK        -0.2369 
      8 C8         33.7493  -44.4240  -53.7681 C.3       11 UNK         0.0226 
      9 C9         32.5685  -44.0820  -54.6740 C.ar      11 UNK        -0.0699 
     10 C10        31.4759  -43.3434  -54.2014 C.ar      11 UNK        -0.0804 
     11 C11        30.4156  -43.0172  -55.0530 C.ar      11 UNK        -0.0871 
     12 C12        30.4741  -43.3961  -56.3969 C.ar      11 UNK        -0.1008 
     13 C13        31.5390  -44.1599  -56.8766 C.ar      11 UNK        -0.0735 
     14 C14        32.5833  -44.4976  -56.0100 C.ar      11 UNK        -0.0945 
     15 C15        31.5658  -44.6104  -58.3315 C.3       11 UNK         0.0169 
     16 S16        30.1472  -45.6841  -58.7474 S.3       11 UNK        -0.2669 
     17 C17        29.1833  -44.6729  -59.9276 C.3       11 UNK        -0.0850 
     18 CA         27.7575  -44.3357  -59.4208 C.3       10 UNK         0.0855 
     19 C          27.0343  -43.3985  -60.4272 C.2       10 UNK         0.5543 
     20 N          27.1354  -42.0899  -60.2389 N.am      10 UNK        -0.7343 
     21 O          26.4265  -43.8450  -61.3984 O.2       10 UNK        -0.5027 
     22 N          26.9900  -45.5553  -59.1311 N.am      10 UNK        -0.4495 
     23 C          25.7859  -45.6070  -58.5522 C.2       10 UNK         0.4903 
     24 O          25.1926  -44.6170  -58.1244 O.2       10 UNK        -0.4860 
     25 CA         25.1362  -46.9945  -58.3834 C.3       9 UNK         0.0227 
     26 CB         24.2855  -47.3612  -59.6155 C.3       9 UNK        -0.1964 
     27 N          26.0691  -48.0748  -58.0165 N.am      9 UNK        -0.4231 
     28 C          27.0334  -48.6419  -58.7579 C.2       9 UNK         0.5014 
     29 O          27.2812  -48.3044  -59.9164 O.2       9 UNK        -0.5270 
     30 CA         27.8942  -49.7422  -58.1099 C.3       8 UNK         0.0284 
     31 CB         29.3921  -49.4178  -58.2492 C.3       8 UNK        -0.1977 
     32 N          27.6050  -49.9657  -56.6908 N.am      8 UNK        -0.4342 
     33 C          26.7401  -50.8687  -56.2115 C.2       8 UNK         0.5039 
     34 O          25.9914  -51.5397  -56.9221 O.2       8 UNK        -0.5547 
     35 CA         26.7091  -51.0676  -54.6886 C.3       7 UNK         0.0281 
     36 CB         27.9123  -51.9119  -54.2345 C.3       7 UNK        -0.1963 
     37 N          26.7224  -49.7896  -53.9741 N.am      7 UNK        -0.4444 
     38 C          25.7476  -49.3524  -53.1636 C.2       7 UNK         0.5104 
     39 O          24.7294  -49.9956  -52.9058 O.2       7 UNK        -0.5100 
     40 CA         25.9266  -47.9603  -52.5207 C.3       6 UNK         0.0396 
     41 CB         26.4704  -48.1003  -51.0900 C.3       6 UNK        -0.1801 
     42 N          26.8016  -47.0597  -53.2760 N.am      6 UNK        -0.4747 
     43 C          26.5675  -46.6254  -54.5227 C.2       6 UNK         0.5012 
     44 O          25.5319  -46.8712  -55.1388 O.2       6 UNK        -0.5003 
     45 CA         27.6930  -45.8398  -55.2303 C.3       5 UNK         0.0782 
     46 C46        27.3757  -44.3184  -55.2591 C.3       11 UNK        -0.0868 
     47 S47        27.9605  -43.3839  -53.7966 S.3       11 UNK        -0.2515 
     48 C48        29.2042  -42.2612  -54.5242 C.3       11 UNK         0.0199 
     49 N          29.0427  -46.1336  -54.7246 N.am      5 UNK        -0.4607 
     50 C          29.6146  -47.3412  -54.6370 C.2       4 UNK         0.5031 
     51 O          29.0680  -48.3902  -54.9859 O.2       4 UNK        -0.5119 
     52 CA         30.9647  -47.3946  -53.9113 C.3       4 UNK         0.0263 
     53 CB         30.7185  -47.6088  -52.4077 C.3       4 UNK        -0.1967 
     54 N          31.8591  -48.4437  -54.4044 N.am      4 UNK        -0.4237 
     55 C          32.3258  -48.5426  -55.6581 C.2       3 UNK         0.4908 
     56 O          32.0464  -47.7577  -56.5631 O.2       3 UNK        -0.5102 
     57 CA         33.3019  -49.7064  -55.9248 C.3       3 UNK         0.0241 
     58 CB         33.8480  -49.7190  -57.3693 C.3       3 UNK        -0.1971 
     59 N          34.4021  -49.7469  -54.9512 N.am      3 UNK        -0.4139 
     60 C          35.2829  -48.7694  -54.6847 C.2       2 UNK         0.5016 
     61 O          35.3404  -47.6906  -55.2792 O.2       2 UNK        -0.5319 
     62 CA         36.2669  -49.0369  -53.5324 C.3       2 UNK         0.0286 
     63 CB         37.7213  -49.0262  -54.0326 C.3       2 UNK        -0.1963 
     64 N          36.1101  -48.0418  -52.4687 N.am      2 UNK        -0.4790 
     65 C          35.0106  -47.9133  -51.7126 C.2       1 UNK         0.5024 
     66 O          34.0371  -48.6671  -51.8038 O.2       1 UNK        -0.4888 
     67 H67        32.0478  -47.2443  -48.0362 H         1 UNK         0.0892 
     68 H68        33.1266  -47.6961  -46.7146 H         1 UNK         0.0892 
     69 H69        32.4468  -48.9416  -47.7662 H         1 UNK         0.0892 
     70 H70        33.1390  -46.4065  -49.8050 H         1 UNK         0.3107 
     71 H71        35.9812  -46.7793  -50.1929 H         1 UNK         0.0773 
     72 H72        35.6719  -45.2292  -52.1156 H         1 UNK         0.0680 
     73 H73        35.0694  -44.5829  -50.6244 H         1 UNK         0.0680 
     74 H74        34.3724  -43.5361  -53.6554 H         1 UNK         0.0650 
     75 H75        34.3723  -45.1900  -54.2336 H         1 UNK         0.0650 
     76 H76        31.4462  -43.0284  -53.1672 H         1 UNK         0.1397 
     77 H77        29.6784  -43.1218  -57.0735 H         1 UNK         0.1363 
     78 H78        33.4123  -45.0872  -56.3783 H         1 UNK         0.1355 
     79 H79        32.4778  -45.1739  -58.5345 H         1 UNK         0.0707 
     80 H80        31.6057  -43.7333  -58.9771 H         1 UNK         0.0707 
     81 H81        29.1263  -45.2242  -60.8683 H         1 UNK         0.1034 
     82 H82        29.7268  -43.7556  -60.1582 H         1 UNK         0.1034 
     83 H83        27.8542  -43.7945  -58.4795 H         1 UNK         0.0482 
     84 H84        26.6867  -41.4666  -60.8920 H         1 UNK         0.3460 
     85 H85        27.6394  -41.7101  -59.4531 H         1 UNK         0.3460 
     86 H86        27.3717  -46.4246  -59.4915 H         1 UNK         0.2989 
     87 H87        24.4476  -46.9114  -57.5417 H         1 UNK         0.0559 
     88 H88        24.8836  -47.4217  -60.5251 H         1 UNK         0.0848 
     89 H89        23.5143  -46.6097  -59.7897 H         1 UNK         0.0848 
     90 H90        23.7811  -48.3178  -59.4800 H         1 UNK         0.0848 
     91 H91        25.9725  -48.4056  -57.0658 H         1 UNK         0.3144 
     92 H92        27.7003  -50.6619  -58.6657 H         1 UNK         0.0727 
     93 H93        30.0129  -50.2120  -57.8346 H         1 UNK         0.0790 
     94 H94        29.6500  -48.4920  -57.7340 H         1 UNK         0.0790 
     95 H95        29.6787  -49.2973  -59.2947 H         1 UNK         0.0790 
     96 H96        28.1874  -49.4404  -56.0367 H         1 UNK         0.3215 
     97 H97        25.8002  -51.6269  -54.4562 H         1 UNK         0.0863 
     98 H98        27.8592  -52.1312  -53.1681 H         1 UNK         0.0808 
     99 H99        28.8595  -51.4047  -54.4240 H         1 UNK         0.0808 
    100 H100       27.9409  -52.8671  -54.7606 H         1 UNK         0.0808 
    101 H101       27.5211  -49.1848  -54.1411 H         1 UNK         0.3118 
    102 H102       24.9399  -47.4955  -52.4682 H         1 UNK         0.0546 
    103 H103       25.8251  -48.7422  -50.4884 H         1 UNK         0.0828 
    104 H104       26.5212  -47.1346  -50.5869 H         1 UNK         0.0828 
    105 H105       27.4685  -48.5401  -51.0781 H         1 UNK         0.0828 
    106 H106       27.6727  -46.7960  -52.8398 H         1 UNK         0.3005 
    107 H107       27.6858  -46.1935  -56.2632 H         1 UNK         0.1257 
    108 H108       26.3042  -44.1386  -55.3722 H         1 UNK         0.0775 
    109 H109       27.8068  -43.8824  -56.1558 H         1 UNK         0.0775 
    110 H110       28.7428  -41.6712  -55.3178 H         1 UNK         0.0840 
    111 H111       29.5208  -41.5464  -53.7631 H         1 UNK         0.0840 
    112 H112       29.5609  -45.3244  -54.4090 H         1 UNK         0.2987 
    113 H113       31.4730  -46.4439  -54.0570 H         1 UNK         0.0785 
    114 H114       30.0970  -46.8139  -51.9936 H         1 UNK         0.0798 
    115 H115       31.6506  -47.6049  -51.8451 H         1 UNK         0.0798 
    116 H116       30.2144  -48.5563  -52.2120 H         1 UNK         0.0798 
    117 H117       32.1750  -49.1159  -53.7204 H         1 UNK         0.3079 
    118 H118       32.7267  -50.6231  -55.7853 H         1 UNK         0.0794 
    119 H119       34.4138  -48.8148  -57.5966 H         1 UNK         0.0786 
    120 H120       33.0337  -49.7817  -58.0924 H         1 UNK         0.0786 
    121 H121       34.5003  -50.5752  -57.5401 H         1 UNK         0.0786 
    122 H122       34.4419  -50.5826  -54.3839 H         1 UNK         0.3032 
    123 H123       36.0623  -50.0218  -53.1061 H         1 UNK         0.1094 
    124 H124       37.8674  -49.7679  -54.8190 H         1 UNK         0.0794 
    125 H125       38.0005  -48.0558  -54.4454 H         1 UNK         0.0794 
    126 H126       38.4199  -49.2641  -53.2302 H         1 UNK         0.0794 
    127 H127       36.8609  -47.3751  -52.3612 H         1 UNK         0.3016 
@<TRIPOS>BOND
     1    1    2 1    
     2    1   67 1    
     3    1   68 1    
     4    1   69 1    
     5    2    3 2    
     6    2    4 am   BACKBONE|DICT|INTERRES
     7    4    5 1    
     8    4   70 1    
     9    5    6 1    
    10    5   65 1    
    11    5   71 1    
    12    6    7 1    
    13    6   72 1    
    14    6   73 1    
    15    7    8 1    
    16    8    9 1    
    17    8   74 1    
    18    8   75 1    
    19    9   10 ar   
    20    9   14 ar   
    21   10   11 ar   
    22   10   76 1    
    23   11   12 ar   
    24   11   48 1    
    25   12   13 ar   
    26   12   77 1    
    27   13   14 ar   
    28   13   15 1    
    29   14   78 1    
    30   15   16 1    
    31   15   79 1    
    32   15   80 1    
    33   16   17 1    
    34   17   18 1    
    35   17   81 1    
    36   17   82 1    
    37   18   19 1    
    38   18   22 1    
    39   18   83 1    
    40   19   20 am   BACKBONE|DICT|INTERRES
    41   19   21 2    
    42   20   84 1    
    43   20   85 1    
    44   22   23 am   BACKBONE|DICT|INTERRES
    45   22   86 1    
    46   23   24 2    
    47   23   25 1    
    48   25   26 1    
    49   25   27 1    
    50   25   87 1    
    51   26   88 1    
    52   26   89 1    
    53   26   90 1    
    54   27   28 am   BACKBONE|DICT|INTERRES
    55   27   91 1    
    56   28   29 2    
    57   28   30 1    
    58   30   31 1    
    59   30   32 1    
    60   30   92 1    
    61   31   93 1    
    62   31   94 1    
    63   31   95 1    
    64   32   33 am   BACKBONE|DICT|INTERRES
    65   32   96 1    
    66   33   34 2    
    67   33   35 1    
    68   35   36 1    
    69   35   37 1    
    70   35   97 1    
    71   36   98 1    
    72   36   99 1    
    73   36  100 1    
    74   37   38 am   BACKBONE|DICT|INTERRES
    75   37  101 1    
    76   38   39 2    
    77   38   40 1    
    78   40   41 1    
    79   40   42 1    
    80   40  102 1    
    81   41  103 1    
    82   41  104 1    
    83   41  105 1    
    84   42   43 am   BACKBONE|DICT|INTERRES
    85   42  106 1    
    86   43   44 2    
    87   43   45 1    
    88   45   46 1    
    89   45   49 1    
    90   45  107 1    
    91   46   47 1    
    92   46  108 1    
    93   46  109 1    
    94   47   48 1    
    95   48  110 1    
    96   48  111 1    
    97   49   50 am   BACKBONE|DICT|INTERRES
    98   49  112 1    
    99   50   51 2    
   100   50   52 1    
   101   52   53 1    
   102   52   54 1    
   103   52  113 1    
   104   53  114 1    
   105   53  115 1    
   106   53  116 1    
   107   54   55 am   BACKBONE|DICT|INTERRES
   108   54  117 1    
   109   55   56 2    
   110   55   57 1    
   111   57   58 1    
   112   57   59 1    
   113   57  118 1    
   114   58  119 1    
   115   58  120 1    
   116   58  121 1    
   117   59   60 am   BACKBONE|DICT|INTERRES
   118   59  122 1    
   119   60   61 2    
   120   60   62 1    
   121   62   63 1    
   122   62   64 1    
   123   62  123 1    
   124   63  124 1    
   125   63  125 1    
   126   63  126 1    
   127   64   65 am   BACKBONE|DICT|INTERRES
   128   64  127 1    
   129   65   66 2    
@<TRIPOS>SUBSTRUCTURE
     1 UNK         1 GROUP             0       ****    0 ROOT    
