@<TRIPOS>MOLECULE
3R134
127   129    1
SMALL
USER_CHARGES


@<TRIPOS>ATOM
      1 CA         36.9875  -46.9501  -50.0242 C.3       0 UNK        -0.1968 
      2 C          36.1978  -46.2933  -51.1461 C.2       0 UNK         0.4852 
      3 O          34.9916  -46.5223  -51.2539 O.2       0 UNK        -0.5359 
      4 N          36.8695  -45.4870  -51.9832 N.am      1 UNK        -0.4300 
      5 CA         36.3148  -44.7959  -53.1534 C.3       1 UNK         0.0863 
      6 C6         35.2842  -43.7033  -52.7539 C.3       11 UNK        -0.0953 
      7 S7         34.9012  -42.5525  -54.1155 S.3       11 UNK        -0.2369 
      8 C8         33.3688  -41.7826  -53.5087 C.3       11 UNK         0.0226 
      9 C9         32.1655  -42.7071  -53.6360 C.ar      11 UNK        -0.0699 
     10 C10        31.7214  -43.4475  -52.5368 C.ar      11 UNK        -0.0804 
     11 C11        30.5897  -44.2630  -52.6358 C.ar      11 UNK        -0.0871 
     12 C12        29.8929  -44.3267  -53.8474 C.ar      11 UNK        -0.1008 
     13 C13        30.3338  -43.5989  -54.9567 C.ar      11 UNK        -0.0735 
     14 C14        31.4712  -42.7931  -54.8457 C.ar      11 UNK        -0.0945 
     15 C15        29.5828  -43.6733  -56.2756 C.3       11 UNK         0.0169 
     16 S16        28.3207  -42.3683  -56.3695 S.3       11 UNK        -0.2669 
     17 C17        27.9049  -42.3838  -58.1461 C.3       11 UNK        -0.0850 
     18 CA         26.4455  -42.8276  -58.4181 C.3       10 UNK         0.0855 
     19 C          26.0808  -42.5764  -59.9080 C.2       10 UNK         0.5543 
     20 N          25.3677  -41.4977  -60.2009 N.am      10 UNK        -0.7343 
     21 O          26.4845  -43.3196  -60.7996 O.2       10 UNK        -0.5027 
     22 N          26.2208  -44.2205  -58.0017 N.am      10 UNK        -0.4495 
     23 C          25.0425  -44.8570  -58.0243 C.2       10 UNK         0.4903 
     24 O          23.9810  -44.3088  -58.3265 O.2       10 UNK        -0.4860 
     25 CA         25.0295  -46.3426  -57.6038 C.3       9 UNK         0.0227 
     26 CB         23.9443  -47.1527  -58.3443 C.3       9 UNK        -0.1964 
     27 N          26.3251  -47.0306  -57.6880 N.am      9 UNK        -0.4231 
     28 C          27.0758  -47.2414  -58.7811 C.2       9 UNK         0.5014 
     29 O          26.8190  -46.7941  -59.8986 O.2       9 UNK        -0.5270 
     30 CA         28.3156  -48.1332  -58.5953 C.3       8 UNK         0.0284 
     31 CB         29.4310  -47.3918  -57.8402 C.3       8 UNK        -0.1977 
     32 N          27.9990  -49.3859  -57.9055 N.am      8 UNK        -0.4342 
     33 C          27.1990  -50.3469  -58.3931 C.2       8 UNK         0.5039 
     34 O          26.7053  -50.3290  -59.5211 O.2       8 UNK        -0.5547 
     35 CA         26.8822  -51.5216  -57.4565 C.3       7 UNK         0.0281 
     36 CB         28.0009  -52.5750  -57.5029 C.3       7 UNK        -0.1963 
     37 N          26.6803  -51.0597  -56.0816 N.am      7 UNK        -0.4444 
     38 C          25.5330  -50.5314  -55.6308 C.2       7 UNK         0.5104 
     39 O          24.5031  -50.4596  -56.3013 O.2       7 UNK        -0.5100 
     40 CA         25.5216  -49.9886  -54.1898 C.3       6 UNK         0.0396 
     41 CB         24.9830  -51.0537  -53.2217 C.3       6 UNK        -0.1801 
     42 N          26.8319  -49.5297  -53.7216 N.am      6 UNK        -0.4747 
     43 C          27.4661  -48.4383  -54.1747 C.2       6 UNK         0.5012 
     44 O          27.0140  -47.6924  -55.0428 O.2       6 UNK        -0.5003 
     45 CA         28.8657  -48.1601  -53.5926 C.3       5 UNK         0.0782 
     46 C46        28.7418  -47.3716  -52.2685 C.3       11 UNK        -0.0868 
     47 S47        30.3606  -46.8392  -51.6127 S.3       11 UNK        -0.2515 
     48 C48        30.1128  -45.0443  -51.4192 C.3       11 UNK         0.0199 
     49 N          29.6721  -49.3761  -53.4277 N.am      5 UNK        -0.4607 
     50 C          29.9617  -50.2662  -54.3848 C.2       4 UNK         0.5031 
     51 O          29.5216  -50.1977  -55.5342 O.2       4 UNK        -0.5119 
     52 CA         30.9205  -51.3978  -53.9814 C.3       4 UNK         0.0263 
     53 CB         31.0838  -52.4621  -55.0810 C.3       4 UNK        -0.1967 
     54 N          32.2280  -50.8232  -53.6797 N.am      4 UNK        -0.4237 
     55 C          32.6308  -50.3744  -52.4864 C.2       3 UNK         0.4908 
     56 O          31.9689  -50.4936  -51.4551 O.2       3 UNK        -0.5102 
     57 CA         33.9747  -49.6263  -52.4454 C.3       3 UNK         0.0241 
     58 CB         35.1643  -50.5604  -52.7428 C.3       3 UNK        -0.1971 
     59 N          33.9993  -48.4256  -53.2928 N.am      3 UNK        -0.4139 
     60 C          33.8895  -48.3323  -54.6289 C.2       2 UNK         0.5016 
     61 O          33.8020  -49.3022  -55.3838 O.2       2 UNK        -0.5319 
     62 CA         33.8436  -46.9191  -55.2361 C.3       2 UNK         0.0286 
     63 CB         32.3851  -46.5041  -55.4830 C.3       2 UNK        -0.1963 
     64 N          34.4943  -45.9056  -54.4046 N.am      2 UNK        -0.4790 
     65 C          35.8140  -45.8357  -54.1819 C.2       1 UNK         0.5024 
     66 O          36.6348  -46.5750  -54.7285 O.2       1 UNK        -0.4888 
     67 H67        36.5732  -46.6638  -49.0579 H         1 UNK         0.0892 
     68 H68        38.0388  -46.6634  -50.0415 H         1 UNK         0.0892 
     69 H69        36.9295  -48.0347  -50.1123 H         1 UNK         0.0892 
     70 H70        37.8649  -45.3698  -51.8530 H         1 UNK         0.3107 
     71 H71        37.1605  -44.2922  -53.6247 H         1 UNK         0.0773 
     72 H72        34.3712  -44.1505  -52.3630 H         1 UNK         0.0680 
     73 H73        35.6886  -43.1037  -51.9369 H         1 UNK         0.0680 
     74 H74        33.5054  -41.4669  -52.4732 H         1 UNK         0.0650 
     75 H75        33.1872  -40.8715  -54.0806 H         1 UNK         0.0650 
     76 H76        32.2516  -43.3774  -51.5968 H         1 UNK         0.1397 
     77 H77        29.0069  -44.9394  -53.9304 H         1 UNK         0.1363 
     78 H78        31.8087  -42.2200  -55.6986 H         1 UNK         0.1355 
     79 H79        29.1068  -44.6481  -56.3887 H         1 UNK         0.0707 
     80 H80        30.2871  -43.5712  -57.1028 H         1 UNK         0.0707 
     81 H81        28.6054  -43.0142  -58.6973 H         1 UNK         0.1034 
     82 H82        28.0662  -41.3693  -58.5168 H         1 UNK         0.1034 
     83 H83        25.7878  -42.2090  -57.8038 H         1 UNK         0.0482 
     84 H84        25.1375  -41.3083  -61.1640 H         1 UNK         0.3460 
     85 H85        25.0406  -40.8767  -59.4768 H         1 UNK         0.3460 
     86 H86        27.0402  -44.7483  -57.7472 H         1 UNK         0.2989 
     87 H87        24.7692  -46.3451  -56.5444 H         1 UNK         0.0559 
     88 H88        24.1048  -47.1489  -59.4229 H         1 UNK         0.0848 
     89 H89        22.9505  -46.7426  -58.1612 H         1 UNK         0.0848 
     90 H90        23.9296  -48.1909  -58.0117 H         1 UNK         0.0848 
     91 H91        26.6564  -47.4069  -56.8000 H         1 UNK         0.3144 
     92 H92        28.6926  -48.3879  -59.5882 H         1 UNK         0.0727 
     93 H93        30.3382  -47.9947  -57.7987 H         1 UNK         0.0790 
     94 H94        29.1428  -47.1526  -56.8167 H         1 UNK         0.0790 
     95 H95        29.6869  -46.4558  -58.3387 H         1 UNK         0.0790 
     96 H96        28.4243  -49.5336  -56.9941 H         1 UNK         0.3215 
     97 H97        25.9625  -51.9952  -57.8079 H         1 UNK         0.0863 
     98 H98        27.8050  -53.3969  -56.8144 H         1 UNK         0.0808 
     99 H99        28.9726  -52.1488  -57.2547 H         1 UNK         0.0808 
    100 H100       28.0849  -53.0026  -58.5028 H         1 UNK         0.0808 
    101 H101       27.4984  -51.0267  -55.4876 H         1 UNK         0.3118 
    102 H102       24.8400  -49.1353  -54.1683 H         1 UNK         0.0546 
    103 H103       23.9931  -51.3945  -53.5287 H         1 UNK         0.0828 
    104 H104       24.8873  -50.6596  -52.2099 H         1 UNK         0.0828 
    105 H105       25.6307  -51.9304  -53.1826 H         1 UNK         0.0828 
    106 H106       27.2864  -50.0883  -53.0130 H         1 UNK         0.3005 
    107 H107       29.3871  -47.5318  -54.3177 H         1 UNK         0.1257 
    108 H108       28.2566  -47.9815  -51.5039 H         1 UNK         0.0775 
    109 H109       28.0981  -46.5010  -52.4045 H         1 UNK         0.0775 
    110 H110       29.0663  -44.8150  -51.2150 H         1 UNK         0.0840 
    111 H111       30.6597  -44.7266  -50.5302 H         1 UNK         0.0840 
    112 H112       30.1088  -49.4941  -52.5221 H         1 UNK         0.2987 
    113 H113       30.5132  -51.8875  -53.0943 H         1 UNK         0.0785 
    114 H114       31.4476  -52.0302  -56.0144 H         1 UNK         0.0798 
    115 H115       30.1327  -52.9517  -55.2910 H         1 UNK         0.0798 
    116 H116       31.7851  -53.2395  -54.7774 H         1 UNK         0.0798 
    117 H117       32.8050  -50.5620  -54.4778 H         1 UNK         0.3079 
    118 H118       34.0974  -49.2624  -51.4238 H         1 UNK         0.0794 
    119 H119       35.1303  -50.9658  -53.7543 H         1 UNK         0.0786 
    120 H120       35.1743  -51.4068  -52.0550 H         1 UNK         0.0786 
    121 H121       36.1131  -50.0365  -52.6260 H         1 UNK         0.0786 
    122 H122       34.0917  -47.5577  -52.7722 H         1 UNK         0.3032 
    123 H123       34.3611  -46.9598  -56.1973 H         1 UNK         0.1094 
    124 H124       32.3271  -45.5508  -56.0081 H         1 UNK         0.0794 
    125 H125       31.8681  -47.2436  -56.0946 H         1 UNK         0.0794 
    126 H126       31.8304  -46.4103  -54.5487 H         1 UNK         0.0794 
    127 H127       33.8918  -45.2484  -53.9285 H         1 UNK         0.3016 
@<TRIPOS>BOND
     1    1    2 1    
     2    1   67 1    
     3    1   68 1    
     4    1   69 1    
     5    2    3 2    
     6    2    4 am   BACKBONE|DICT|INTERRES
     7    4    5 1    
     8    4   70 1    
     9    5    6 1    
    10    5   65 1    
    11    5   71 1    
    12    6    7 1    
    13    6   72 1    
    14    6   73 1    
    15    7    8 1    
    16    8    9 1    
    17    8   74 1    
    18    8   75 1    
    19    9   10 ar   
    20    9   14 ar   
    21   10   11 ar   
    22   10   76 1    
    23   11   12 ar   
    24   11   48 1    
    25   12   13 ar   
    26   12   77 1    
    27   13   14 ar   
    28   13   15 1    
    29   14   78 1    
    30   15   16 1    
    31   15   79 1    
    32   15   80 1    
    33   16   17 1    
    34   17   18 1    
    35   17   81 1    
    36   17   82 1    
    37   18   19 1    
    38   18   22 1    
    39   18   83 1    
    40   19   20 am   BACKBONE|DICT|INTERRES
    41   19   21 2    
    42   20   84 1    
    43   20   85 1    
    44   22   23 am   BACKBONE|DICT|INTERRES
    45   22   86 1    
    46   23   24 2    
    47   23   25 1    
    48   25   26 1    
    49   25   27 1    
    50   25   87 1    
    51   26   88 1    
    52   26   89 1    
    53   26   90 1    
    54   27   28 am   BACKBONE|DICT|INTERRES
    55   27   91 1    
    56   28   29 2    
    57   28   30 1    
    58   30   31 1    
    59   30   32 1    
    60   30   92 1    
    61   31   93 1    
    62   31   94 1    
    63   31   95 1    
    64   32   33 am   BACKBONE|DICT|INTERRES
    65   32   96 1    
    66   33   34 2    
    67   33   35 1    
    68   35   36 1    
    69   35   37 1    
    70   35   97 1    
    71   36   98 1    
    72   36   99 1    
    73   36  100 1    
    74   37   38 am   BACKBONE|DICT|INTERRES
    75   37  101 1    
    76   38   39 2    
    77   38   40 1    
    78   40   41 1    
    79   40   42 1    
    80   40  102 1    
    81   41  103 1    
    82   41  104 1    
    83   41  105 1    
    84   42   43 am   BACKBONE|DICT|INTERRES
    85   42  106 1    
    86   43   44 2    
    87   43   45 1    
    88   45   46 1    
    89   45   49 1    
    90   45  107 1    
    91   46   47 1    
    92   46  108 1    
    93   46  109 1    
    94   47   48 1    
    95   48  110 1    
    96   48  111 1    
    97   49   50 am   BACKBONE|DICT|INTERRES
    98   49  112 1    
    99   50   51 2    
   100   50   52 1    
   101   52   53 1    
   102   52   54 1    
   103   52  113 1    
   104   53  114 1    
   105   53  115 1    
   106   53  116 1    
   107   54   55 am   BACKBONE|DICT|INTERRES
   108   54  117 1    
   109   55   56 2    
   110   55   57 1    
   111   57   58 1    
   112   57   59 1    
   113   57  118 1    
   114   58  119 1    
   115   58  120 1    
   116   58  121 1    
   117   59   60 am   BACKBONE|DICT|INTERRES
   118   59  122 1    
   119   60   61 2    
   120   60   62 1    
   121   62   63 1    
   122   62   64 1    
   123   62  123 1    
   124   63  124 1    
   125   63  125 1    
   126   63  126 1    
   127   64   65 am   BACKBONE|DICT|INTERRES
   128   64  127 1    
   129   65   66 2    
@<TRIPOS>SUBSTRUCTURE
     1 UNK         1 GROUP             0       ****    0 ROOT    
