@<TRIPOS>MOLECULE
3R134
127   129    1
SMALL
USER_CHARGES


@<TRIPOS>ATOM
      1 CA         38.5092  -45.3359  -53.2376 C.3       0 UNK        -0.1968 
      2 C          37.4424  -46.2920  -53.7500 C.2       0 UNK         0.4852 
      3 O          37.5166  -47.4925  -53.4844 O.2       0 UNK        -0.5359 
      4 N          36.4397  -45.7703  -54.4706 N.am      1 UNK        -0.4300 
      5 CA         35.3362  -46.5411  -55.0595 C.3       1 UNK         0.0863 
      6 C6         34.7112  -45.8068  -56.2744 C.3       11 UNK        -0.0953 
      7 S7         33.7995  -44.2836  -55.8397 S.3       11 UNK        -0.2369 
      8 C8         32.0859  -44.8202  -56.1380 C.3       11 UNK         0.0226 
      9 C9         31.1212  -44.1268  -55.1926 C.ar      11 UNK        -0.0699 
     10 C10        30.8479  -44.6921  -53.9437 C.ar      11 UNK        -0.0804 
     11 C11        29.9387  -44.0843  -53.0742 C.ar      11 UNK        -0.0871 
     12 C12        29.3153  -42.8936  -53.4565 C.ar      11 UNK        -0.1008 
     13 C13        29.5924  -42.3102  -54.6957 C.ar      11 UNK        -0.0735 
     14 C14        30.4957  -42.9325  -55.5634 C.ar      11 UNK        -0.0945 
     15 C15        28.9235  -40.9978  -55.0750 C.3       11 UNK         0.0169 
     16 S16        27.2195  -41.2542  -55.6583 S.3       11 UNK        -0.2669 
     17 C17        27.5103  -41.6738  -57.4076 C.3       11 UNK        -0.0850 
     18 CA         26.3140  -42.4281  -58.0396 C.3       10 UNK         0.0855 
     19 C          26.4880  -42.5302  -59.5786 C.2       10 UNK         0.5543 
     20 N          25.6107  -41.9056  -60.3520 N.am      10 UNK        -0.7343 
     21 O          27.4428  -43.1284  -60.0695 O.2       10 UNK        -0.5027 
     22 N          26.1315  -43.7559  -57.4373 N.am      10 UNK        -0.4495 
     23 C          25.0352  -44.5116  -57.5814 C.2       10 UNK         0.4903 
     24 O          24.0022  -44.1177  -58.1267 O.2       10 UNK        -0.4860 
     25 CA         25.1154  -45.9503  -57.0260 C.3       9 UNK         0.0227 
     26 CB         23.9342  -46.8353  -57.4760 C.3       9 UNK        -0.1964 
     27 N          26.3875  -46.6237  -57.3190 N.am      9 UNK        -0.4231 
     28 C          26.9625  -46.7906  -58.5221 C.2       9 UNK         0.5014 
     29 O          26.4885  -46.3886  -59.5852 O.2       9 UNK        -0.5270 
     30 CA         28.2917  -47.5616  -58.5395 C.3       8 UNK         0.0284 
     31 CB         29.4023  -46.7796  -57.8135 C.3       8 UNK        -0.1977 
     32 N          28.1599  -48.8951  -57.9534 N.am      8 UNK        -0.4342 
     33 C          27.4146  -49.8921  -58.4529 C.2       8 UNK         0.5039 
     34 O          26.7963  -49.8279  -59.5160 O.2       8 UNK        -0.5547 
     35 CA         27.3396  -51.1812  -57.6208 C.3       7 UNK         0.0281 
     36 CB         28.5632  -52.0758  -57.8780 C.3       7 UNK        -0.1963 
     37 N          27.2288  -50.8883  -56.1911 N.am      7 UNK        -0.4444 
     38 C          26.0830  -50.5633  -55.5764 C.2       7 UNK         0.5104 
     39 O          24.9857  -50.5487  -56.1347 O.2       7 UNK        -0.5100 
     40 CA         26.1666  -50.1959  -54.0832 C.3       6 UNK         0.0396 
     41 CB         25.8701  -51.4267  -53.2120 C.3       6 UNK        -0.1801 
     42 N          27.4556  -49.6222  -53.6854 N.am      6 UNK        -0.4747 
     43 C          27.9016  -48.4178  -54.0716 C.2       6 UNK         0.5012 
     44 O          27.2858  -47.6694  -54.8320 O.2       6 UNK        -0.5003 
     45 CA         29.3047  -48.0108  -53.5741 C.3       5 UNK         0.0782 
     46 C46        29.2766  -47.4961  -52.1132 C.3       11 UNK        -0.0868 
     47 S47        28.3192  -45.9630  -51.8540 S.3       11 UNK        -0.2515 
     48 C48        29.6255  -44.7012  -51.7202 C.3       11 UNK         0.0199 
     49 N          30.3082  -49.0757  -53.7297 N.am      5 UNK        -0.4607 
     50 C          30.5929  -49.7290  -54.8672 C.2       4 UNK         0.5031 
     51 O          29.9805  -49.5449  -55.9185 O.2       4 UNK        -0.5119 
     52 CA         31.7315  -50.7645  -54.8350 C.3       4 UNK         0.0263 
     53 CB         32.4663  -50.8494  -56.1861 C.3       4 UNK        -0.1967 
     54 N          32.7068  -50.4446  -53.7941 N.am      4 UNK        -0.4237 
     55 C          33.0988  -51.2592  -52.8045 C.2       3 UNK         0.4908 
     56 O          32.6699  -52.4034  -52.6520 O.2       3 UNK        -0.5102 
     57 CA         34.1494  -50.7207  -51.8096 C.3       3 UNK         0.0241 
     58 CB         35.5312  -51.3230  -52.1128 C.3       3 UNK        -0.1971 
     59 N          34.2627  -49.2592  -51.7946 N.am      3 UNK        -0.4139 
     60 C          33.3001  -48.4208  -51.3872 C.2       2 UNK         0.5016 
     61 O          32.2385  -48.7947  -50.8897 O.2       2 UNK        -0.5319 
     62 CA         33.5273  -46.9172  -51.6317 C.3       2 UNK         0.0286 
     63 CB         34.0549  -46.2388  -50.3584 C.3       2 UNK        -0.1963 
     64 N          34.4225  -46.6020  -52.7532 N.am      2 UNK        -0.4790 
     65 C          34.2751  -46.9978  -54.0287 C.2       1 UNK         0.5024 
     66 O          33.3455  -47.7120  -54.4039 O.2       1 UNK        -0.4888 
     67 H67        38.5513  -45.3684  -52.1493 H         1 UNK         0.0892 
     68 H68        38.3143  -44.3069  -53.5394 H         1 UNK         0.0892 
     69 H69        39.4863  -45.6231  -53.6252 H         1 UNK         0.0892 
     70 H70        36.4138  -44.7753  -54.6478 H         1 UNK         0.3107 
     71 H71        35.7688  -47.4648  -55.4506 H         1 UNK         0.0773 
     72 H72        34.0599  -46.4854  -56.8281 H         1 UNK         0.0680 
     73 H73        35.4975  -45.5340  -56.9798 H         1 UNK         0.0680 
     74 H74        31.8206  -44.6158  -57.1763 H         1 UNK         0.0650 
     75 H75        31.9951  -45.8996  -56.0070 H         1 UNK         0.0650 
     76 H76        31.3393  -45.6108  -53.6575 H         1 UNK         0.1397 
     77 H77        28.6103  -42.4167  -52.7889 H         1 UNK         0.1363 
     78 H78        30.7166  -42.4875  -56.5239 H         1 UNK         0.1355 
     79 H79        29.5020  -40.4695  -55.8347 H         1 UNK         0.0707 
     80 H80        28.8992  -40.3414  -54.2038 H         1 UNK         0.0707 
     81 H81        28.4222  -42.2658  -57.5008 H         1 UNK         0.1034 
     82 H82        27.6988  -40.7393  -57.9401 H         1 UNK         0.1034 
     83 H83        25.4124  -41.8461  -57.8354 H         1 UNK         0.0482 
     84 H84        25.7207  -41.9484  -61.3531 H         1 UNK         0.3460 
     85 H85        24.8246  -41.4151  -59.9543 H         1 UNK         0.3460 
     86 H86        26.9391  -44.1555  -56.9839 H         1 UNK         0.2989 
     87 H87        25.0645  -45.8603  -55.9399 H         1 UNK         0.0559 
     88 H88        23.9043  -46.9451  -58.5606 H         1 UNK         0.0848 
     89 H89        22.9807  -46.4076  -57.1639 H         1 UNK         0.0848 
     90 H90        23.9992  -47.8329  -57.0407 H         1 UNK         0.0848 
     91 H91        26.8552  -47.0180  -56.5034 H         1 UNK         0.3144 
     92 H92        28.5927  -47.6853  -59.5819 H         1 UNK         0.0727 
     93 H93        29.5163  -45.7804  -58.2363 H         1 UNK         0.0790 
     94 H94        30.3647  -47.2834  -57.9068 H         1 UNK         0.0790 
     95 H95        29.1938  -46.6624  -56.7496 H         1 UNK         0.0790 
     96 H96        28.7019  -49.0762  -57.1097 H         1 UNK         0.3215 
     97 H97        26.4511  -51.7322  -57.9379 H         1 UNK         0.0863 
     98 H98        28.4973  -53.0090  -57.3186 H         1 UNK         0.0808 
     99 H99        29.4944  -51.5829  -57.6007 H         1 UNK         0.0808 
    100 H100       28.6370  -52.3363  -58.9347 H         1 UNK         0.0808 
    101 H101       28.0919  -50.8170  -55.6705 H         1 UNK         0.3118 
    102 H102       25.3942  -49.4486  -53.8881 H         1 UNK         0.0546 
    103 H103       24.9014  -51.8596  -53.4659 H         1 UNK         0.0828 
    104 H104       25.8380  -51.1668  -52.1538 H         1 UNK         0.0828 
    105 H105       26.6199  -52.2076  -53.3451 H         1 UNK         0.0828 
    106 H106       28.0370  -50.1790  -53.0752 H         1 UNK         0.3005 
    107 H107       29.6279  -47.1934  -54.2201 H         1 UNK         0.1257 
    108 H108       30.2932  -47.3221  -51.7667 H         1 UNK         0.0775 
    109 H109       28.8749  -48.2620  -51.4472 H         1 UNK         0.0775 
    110 H110       29.2826  -43.9260  -51.0331 H         1 UNK         0.0840 
    111 H111       30.5268  -45.1150  -51.2671 H         1 UNK         0.0840 
    112 H112       30.8529  -49.2969  -52.9072 H         1 UNK         0.2987 
    113 H113       31.2635  -51.7306  -54.6371 H         1 UNK         0.0785 
    114 H114       31.7918  -51.1491  -56.9884 H         1 UNK         0.0798 
    115 H115       33.2713  -51.5836  -56.1532 H         1 UNK         0.0798 
    116 H116       32.9002  -49.8882  -56.4654 H         1 UNK         0.0798 
    117 H117       33.0879  -49.5026  -53.8455 H         1 UNK         0.3079 
    118 H118       33.8447  -51.0432  -50.8117 H         1 UNK         0.0794 
    119 H119       35.8977  -51.0183  -53.0940 H         1 UNK         0.0786 
    120 H120       35.4939  -52.4134  -52.1027 H         1 UNK         0.0786 
    121 H121       36.2687  -51.0197  -51.3693 H         1 UNK         0.0786 
    122 H122       35.1039  -48.8610  -52.1888 H         1 UNK         0.3032 
    123 H123       32.5542  -46.4856  -51.8654 H         1 UNK         0.1094 
    124 H124       34.1100  -45.1566  -50.4780 H         1 UNK         0.0794 
    125 H125       33.3973  -46.4346  -49.5099 H         1 UNK         0.0794 
    126 H126       35.0488  -46.5997  -50.0907 H         1 UNK         0.0794 
    127 H127       35.2196  -46.0199  -52.5409 H         1 UNK         0.3016 
@<TRIPOS>BOND
     1    1    2 1    
     2    1   67 1    
     3    1   68 1    
     4    1   69 1    
     5    2    3 2    
     6    2    4 am   BACKBONE|DICT|INTERRES
     7    4    5 1    
     8    4   70 1    
     9    5    6 1    
    10    5   65 1    
    11    5   71 1    
    12    6    7 1    
    13    6   72 1    
    14    6   73 1    
    15    7    8 1    
    16    8    9 1    
    17    8   74 1    
    18    8   75 1    
    19    9   10 ar   
    20    9   14 ar   
    21   10   11 ar   
    22   10   76 1    
    23   11   12 ar   
    24   11   48 1    
    25   12   13 ar   
    26   12   77 1    
    27   13   14 ar   
    28   13   15 1    
    29   14   78 1    
    30   15   16 1    
    31   15   79 1    
    32   15   80 1    
    33   16   17 1    
    34   17   18 1    
    35   17   81 1    
    36   17   82 1    
    37   18   19 1    
    38   18   22 1    
    39   18   83 1    
    40   19   20 am   BACKBONE|DICT|INTERRES
    41   19   21 2    
    42   20   84 1    
    43   20   85 1    
    44   22   23 am   BACKBONE|DICT|INTERRES
    45   22   86 1    
    46   23   24 2    
    47   23   25 1    
    48   25   26 1    
    49   25   27 1    
    50   25   87 1    
    51   26   88 1    
    52   26   89 1    
    53   26   90 1    
    54   27   28 am   BACKBONE|DICT|INTERRES
    55   27   91 1    
    56   28   29 2    
    57   28   30 1    
    58   30   31 1    
    59   30   32 1    
    60   30   92 1    
    61   31   93 1    
    62   31   94 1    
    63   31   95 1    
    64   32   33 am   BACKBONE|DICT|INTERRES
    65   32   96 1    
    66   33   34 2    
    67   33   35 1    
    68   35   36 1    
    69   35   37 1    
    70   35   97 1    
    71   36   98 1    
    72   36   99 1    
    73   36  100 1    
    74   37   38 am   BACKBONE|DICT|INTERRES
    75   37  101 1    
    76   38   39 2    
    77   38   40 1    
    78   40   41 1    
    79   40   42 1    
    80   40  102 1    
    81   41  103 1    
    82   41  104 1    
    83   41  105 1    
    84   42   43 am   BACKBONE|DICT|INTERRES
    85   42  106 1    
    86   43   44 2    
    87   43   45 1    
    88   45   46 1    
    89   45   49 1    
    90   45  107 1    
    91   46   47 1    
    92   46  108 1    
    93   46  109 1    
    94   47   48 1    
    95   48  110 1    
    96   48  111 1    
    97   49   50 am   BACKBONE|DICT|INTERRES
    98   49  112 1    
    99   50   51 2    
   100   50   52 1    
   101   52   53 1    
   102   52   54 1    
   103   52  113 1    
   104   53  114 1    
   105   53  115 1    
   106   53  116 1    
   107   54   55 am   BACKBONE|DICT|INTERRES
   108   54  117 1    
   109   55   56 2    
   110   55   57 1    
   111   57   58 1    
   112   57   59 1    
   113   57  118 1    
   114   58  119 1    
   115   58  120 1    
   116   58  121 1    
   117   59   60 am   BACKBONE|DICT|INTERRES
   118   59  122 1    
   119   60   61 2    
   120   60   62 1    
   121   62   63 1    
   122   62   64 1    
   123   62  123 1    
   124   63  124 1    
   125   63  125 1    
   126   63  126 1    
   127   64   65 am   BACKBONE|DICT|INTERRES
   128   64  127 1    
   129   65   66 2    
@<TRIPOS>SUBSTRUCTURE
     1 UNK         1 GROUP             0       ****    0 ROOT    
