@<TRIPOS>MOLECULE
3R134
127   129    1
SMALL
USER_CHARGES


@<TRIPOS>ATOM
      1 CA         33.4335  -46.2974  -51.1482 C.3       0 UNK        -0.1968 
      2 C          34.3277  -45.8847  -52.3082 C.2       0 UNK         0.4852 
      3 O          35.2289  -45.0659  -52.1270 O.2       0 UNK        -0.5359 
      4 N          34.0891  -46.4516  -53.4965 N.am      1 UNK        -0.4300 
      5 CA         34.7900  -46.1387  -54.7525 C.3       1 UNK         0.0863 
      6 C6         33.8187  -46.0573  -55.9702 C.3       11 UNK        -0.0953 
      7 S7         32.1773  -45.3259  -55.6634 S.3       11 UNK        -0.2369 
      8 C8         32.5420  -43.6865  -54.9727 C.3       11 UNK         0.0226 
      9 C9         31.2944  -43.1669  -54.2817 C.ar      11 UNK        -0.0699 
     10 C10        30.9833  -43.6119  -52.9947 C.ar      11 UNK        -0.0804 
     11 C11        29.7862  -43.2354  -52.3808 C.ar      11 UNK        -0.0871 
     12 C12        28.9073  -42.3846  -53.0584 C.ar      11 UNK        -0.1008 
     13 C13        29.2190  -41.9137  -54.3382 C.ar      11 UNK        -0.0735 
     14 C14        30.4189  -42.3019  -54.9429 C.ar      11 UNK        -0.0945 
     15 C15        28.2516  -40.9934  -55.0669 C.3       11 UNK         0.0169 
     16 S16        27.0466  -41.9357  -56.0538 S.3       11 UNK        -0.2669 
     17 C17        28.0388  -42.3354  -57.5327 C.3       11 UNK        -0.0850 
     18 CA         27.2113  -43.0629  -58.6232 C.3       10 UNK         0.0855 
     19 C          27.9935  -43.1276  -59.9702 C.2       10 UNK         0.5543 
     20 N          28.2793  -44.2942  -60.5366 N.am      10 UNK        -0.7343 
     21 O          28.3444  -42.0865  -60.5201 O.2       10 UNK        -0.5027 
     22 N          26.7176  -44.3601  -58.1368 N.am      10 UNK        -0.4495 
     23 C          25.6903  -45.0394  -58.6591 C.2       10 UNK         0.4903 
     24 O          24.9695  -44.6069  -59.5603 O.2       10 UNK        -0.4860 
     25 CA         25.4479  -46.4470  -58.0785 C.3       9 UNK         0.0227 
     26 CB         24.5487  -47.3206  -58.9777 C.3       9 UNK        -0.1964 
     27 N          26.6886  -47.1622  -57.7502 N.am      9 UNK        -0.4231 
     28 C          27.7046  -47.4589  -58.5772 C.2       9 UNK         0.5014 
     29 O          27.7657  -47.0999  -59.7538 O.2       9 UNK        -0.5270 
     30 CA         28.8524  -48.2980  -57.9904 C.3       8 UNK         0.0284 
     31 CB         29.8604  -47.4000  -57.2592 C.3       8 UNK        -0.1977 
     32 N          28.3806  -49.3407  -57.0785 N.am      8 UNK        -0.4342 
     33 C          27.6417  -50.3988  -57.4425 C.2       8 UNK         0.5039 
     34 O          27.3509  -50.6706  -58.6079 O.2       8 UNK        -0.5547 
     35 CA         27.1158  -51.2891  -56.3075 C.3       7 UNK         0.0281 
     36 CB         28.1916  -52.2859  -55.8451 C.3       7 UNK        -0.1963 
     37 N          26.6505  -50.4832  -55.1757 N.am      7 UNK        -0.4444 
     38 C          25.4723  -49.8432  -55.1456 C.2       7 UNK         0.5104 
     39 O          24.6237  -49.9303  -56.0329 O.2       7 UNK        -0.5100 
     40 CA         25.1822  -48.9524  -53.9240 C.3       6 UNK         0.0396 
     41 CB         24.3779  -49.7334  -52.8729 C.3       6 UNK        -0.1801 
     42 N          26.3871  -48.4026  -53.2978 N.am      6 UNK        -0.4747 
     43 C          27.1578  -47.4424  -53.8308 C.2       6 UNK         0.5012 
     44 O          26.9387  -46.9154  -54.9211 O.2       6 UNK        -0.5003 
     45 CA         28.4138  -47.0509  -53.0252 C.3       5 UNK         0.0782 
     46 C46        28.0406  -46.0385  -51.9110 C.3       11 UNK        -0.0868 
     47 S47        29.4671  -45.5635  -50.8731 S.3       11 UNK        -0.2515 
     48 C48        29.4473  -43.7433  -50.9855 C.3       11 UNK         0.0199 
     49 N          29.1194  -48.2247  -52.4902 N.am      5 UNK        -0.4607 
     50 C          29.5951  -49.2477  -53.2104 C.2       4 UNK         0.5031 
     51 O          29.4223  -49.3768  -54.4241 O.2       4 UNK        -0.5119 
     52 CA         30.3413  -50.3416  -52.4296 C.3       4 UNK         0.0263 
     53 CB         29.3902  -51.5009  -52.0909 C.3       4 UNK        -0.1967 
     54 N          31.5003  -50.8588  -53.1636 N.am      4 UNK        -0.4237 
     55 C          32.5743  -50.1236  -53.4749 C.2       3 UNK         0.4908 
     56 O          32.6968  -48.9287  -53.1803 O.2       3 UNK        -0.5102 
     57 CA         33.7112  -50.8268  -54.2307 C.3       3 UNK         0.0241 
     58 CB         33.3966  -50.9015  -55.7372 C.3       3 UNK        -0.1971 
     59 N          34.8971  -50.0163  -53.9923 N.am      3 UNK        -0.4139 
     60 C          36.1788  -50.2376  -54.3010 C.2       2 UNK         0.5016 
     61 O          36.5961  -51.2682  -54.8315 O.2       2 UNK        -0.5319 
     62 CA         37.1459  -49.0840  -53.9407 C.3       2 UNK         0.0286 
     63 CB         38.4340  -49.0790  -54.7920 C.3       2 UNK        -0.1963 
     64 N          36.4600  -47.7770  -53.9554 N.am      2 UNK        -0.4790 
     65 C          35.9162  -47.1667  -55.0237 C.2       1 UNK         0.5024 
     66 O          36.2087  -47.4522  -56.1858 O.2       1 UNK        -0.4888 
     67 H67        33.1141  -45.4200  -50.5864 H         1 UNK         0.0892 
     68 H68        32.5382  -46.8161  -51.4918 H         1 UNK         0.0892 
     69 H69        33.9741  -46.9588  -50.4719 H         1 UNK         0.0892 
     70 H70        33.3650  -47.1638  -53.5624 H         1 UNK         0.3107 
     71 H71        35.2793  -45.1673  -54.6594 H         1 UNK         0.0773 
     72 H72        33.6115  -47.0566  -56.3595 H         1 UNK         0.0680 
     73 H73        34.2896  -45.5102  -56.7888 H         1 UNK         0.0680 
     74 H74        32.8614  -43.0145  -55.7704 H         1 UNK         0.0650 
     75 H75        33.3614  -43.7401  -54.2562 H         1 UNK         0.0650 
     76 H76        31.6574  -44.2852  -52.4847 H         1 UNK         0.1397 
     77 H77        27.9762  -42.0894  -52.5937 H         1 UNK         0.1363 
     78 H78        30.6583  -41.9549  -55.9385 H         1 UNK         0.1355 
     79 H79        27.7090  -40.3829  -54.3434 H         1 UNK         0.0707 
     80 H80        28.7934  -40.2939  -55.7054 H         1 UNK         0.0707 
     81 H81        28.4490  -41.4003  -57.9198 H         1 UNK         0.1034 
     82 H82        28.8920  -42.9494  -57.2409 H         1 UNK         0.1034 
     83 H83        26.3368  -42.4433  -58.8314 H         1 UNK         0.0482 
     84 H84        27.9843  -45.1731  -60.1240 H         1 UNK         0.3460 
     85 H85        28.7821  -44.3015  -61.4094 H         1 UNK         0.3460 
     86 H86        27.2456  -44.7872  -57.3903 H         1 UNK         0.2989 
     87 H87        24.9255  -46.2997  -57.1321 H         1 UNK         0.0559 
     88 H88        24.9918  -47.4755  -59.9621 H         1 UNK         0.0848 
     89 H89        23.5731  -46.8570  -59.1276 H         1 UNK         0.0848 
     90 H90        24.3758  -48.2999  -58.5304 H         1 UNK         0.0848 
     91 H91        26.7933  -47.4036  -56.7678 H         1 UNK         0.3144 
     92 H92        29.3673  -48.7860  -58.8206 H         1 UNK         0.0727 
     93 H93        29.4106  -46.8985  -56.4014 H         1 UNK         0.0790 
     94 H94        30.2493  -46.6265  -57.9229 H         1 UNK         0.0790 
     95 H95        30.7134  -47.9742  -56.8962 H         1 UNK         0.0790 
     96 H96        28.6430  -49.2475  -56.0985 H         1 UNK         0.3215 
     97 H97        26.2721  -51.8641  -56.6964 H         1 UNK         0.0863 
     98 H98        27.8174  -52.9346  -55.0532 H         1 UNK         0.0808 
     99 H99        29.0866  -51.7837  -55.4778 H         1 UNK         0.0808 
    100 H100       28.5001  -52.9293  -56.6701 H         1 UNK         0.0808 
    101 H101       27.3142  -50.3090  -54.4343 H         1 UNK         0.3118 
    102 H102       24.5689  -48.1163  -54.2674 H         1 UNK         0.0546 
    103 H103       24.9425  -50.5775  -52.4750 H         1 UNK         0.0828 
    104 H104       23.4578  -50.1318  -53.3032 H         1 UNK         0.0828 
    105 H105       24.0911  -49.0954  -52.0368 H         1 UNK         0.0828 
    106 H106       26.6516  -48.7851  -52.4011 H         1 UNK         0.3005 
    107 H107       29.0980  -46.5562  -53.7192 H         1 UNK         0.1257 
    108 H108       27.2789  -46.4549  -51.2489 H         1 UNK         0.0775 
    109 H109       27.5993  -45.1424  -52.3519 H         1 UNK         0.0775 
    110 H110       28.4724  -43.3776  -50.6591 H         1 UNK         0.0840 
    111 H111       30.1764  -43.3412  -50.2808 H         1 UNK         0.0840 
    112 H112       29.3108  -48.1952  -51.4990 H         1 UNK         0.2987 
    113 H113       30.7087  -49.9120  -51.4948 H         1 UNK         0.0785 
    114 H114       28.5251  -51.1478  -51.5280 H         1 UNK         0.0798 
    115 H115       29.8861  -52.2533  -51.4773 H         1 UNK         0.0798 
    116 H116       29.0160  -51.9949  -52.9874 H         1 UNK         0.0798 
    117 H117       31.4573  -51.8209  -53.4660 H         1 UNK         0.3079 
    118 H118       33.8671  -51.8254  -53.8186 H         1 UNK         0.0794 
    119 H119       32.4859  -51.4730  -55.9209 H         1 UNK         0.0786 
    120 H120       34.1996  -51.3890  -56.2900 H         1 UNK         0.0786 
    121 H121       33.2509  -49.9088  -56.1660 H         1 UNK         0.0786 
    122 H122       34.6630  -49.1470  -53.5292 H         1 UNK         0.3032 
    123 H123       37.4435  -49.2597  -52.9054 H         1 UNK         0.1094 
    124 H124       39.0700  -48.2287  -54.5465 H         1 UNK         0.0794 
    125 H125       38.2206  -49.0439  -55.8604 H         1 UNK         0.0794 
    126 H126       39.0182  -49.9825  -54.6136 H         1 UNK         0.0794 
    127 H127       36.2005  -47.4139  -53.0477 H         1 UNK         0.3016 
@<TRIPOS>BOND
     1    1    2 1    
     2    1   67 1    
     3    1   68 1    
     4    1   69 1    
     5    2    3 2    
     6    2    4 am   BACKBONE|DICT|INTERRES
     7    4    5 1    
     8    4   70 1    
     9    5    6 1    
    10    5   65 1    
    11    5   71 1    
    12    6    7 1    
    13    6   72 1    
    14    6   73 1    
    15    7    8 1    
    16    8    9 1    
    17    8   74 1    
    18    8   75 1    
    19    9   10 ar   
    20    9   14 ar   
    21   10   11 ar   
    22   10   76 1    
    23   11   12 ar   
    24   11   48 1    
    25   12   13 ar   
    26   12   77 1    
    27   13   14 ar   
    28   13   15 1    
    29   14   78 1    
    30   15   16 1    
    31   15   79 1    
    32   15   80 1    
    33   16   17 1    
    34   17   18 1    
    35   17   81 1    
    36   17   82 1    
    37   18   19 1    
    38   18   22 1    
    39   18   83 1    
    40   19   20 am   BACKBONE|DICT|INTERRES
    41   19   21 2    
    42   20   84 1    
    43   20   85 1    
    44   22   23 am   BACKBONE|DICT|INTERRES
    45   22   86 1    
    46   23   24 2    
    47   23   25 1    
    48   25   26 1    
    49   25   27 1    
    50   25   87 1    
    51   26   88 1    
    52   26   89 1    
    53   26   90 1    
    54   27   28 am   BACKBONE|DICT|INTERRES
    55   27   91 1    
    56   28   29 2    
    57   28   30 1    
    58   30   31 1    
    59   30   32 1    
    60   30   92 1    
    61   31   93 1    
    62   31   94 1    
    63   31   95 1    
    64   32   33 am   BACKBONE|DICT|INTERRES
    65   32   96 1    
    66   33   34 2    
    67   33   35 1    
    68   35   36 1    
    69   35   37 1    
    70   35   97 1    
    71   36   98 1    
    72   36   99 1    
    73   36  100 1    
    74   37   38 am   BACKBONE|DICT|INTERRES
    75   37  101 1    
    76   38   39 2    
    77   38   40 1    
    78   40   41 1    
    79   40   42 1    
    80   40  102 1    
    81   41  103 1    
    82   41  104 1    
    83   41  105 1    
    84   42   43 am   BACKBONE|DICT|INTERRES
    85   42  106 1    
    86   43   44 2    
    87   43   45 1    
    88   45   46 1    
    89   45   49 1    
    90   45  107 1    
    91   46   47 1    
    92   46  108 1    
    93   46  109 1    
    94   47   48 1    
    95   48  110 1    
    96   48  111 1    
    97   49   50 am   BACKBONE|DICT|INTERRES
    98   49  112 1    
    99   50   51 2    
   100   50   52 1    
   101   52   53 1    
   102   52   54 1    
   103   52  113 1    
   104   53  114 1    
   105   53  115 1    
   106   53  116 1    
   107   54   55 am   BACKBONE|DICT|INTERRES
   108   54  117 1    
   109   55   56 2    
   110   55   57 1    
   111   57   58 1    
   112   57   59 1    
   113   57  118 1    
   114   58  119 1    
   115   58  120 1    
   116   58  121 1    
   117   59   60 am   BACKBONE|DICT|INTERRES
   118   59  122 1    
   119   60   61 2    
   120   60   62 1    
   121   62   63 1    
   122   62   64 1    
   123   62  123 1    
   124   63  124 1    
   125   63  125 1    
   126   63  126 1    
   127   64   65 am   BACKBONE|DICT|INTERRES
   128   64  127 1    
   129   65   66 2    
@<TRIPOS>SUBSTRUCTURE
     1 UNK         1 GROUP             0       ****    0 ROOT    
