@<TRIPOS>MOLECULE
3R134
127   129    1
SMALL
USER_CHARGES


@<TRIPOS>ATOM
      1 CA         34.3923  -44.3932  -49.8217 C.3       0 UNK        -0.1968 
      2 C          35.3748  -45.1650  -50.6911 C.2       0 UNK         0.4852 
      3 O          36.3832  -45.6602  -50.1849 O.2       0 UNK        -0.5359 
      4 N          35.0906  -45.2641  -51.9951 N.am      1 UNK        -0.4300 
      5 CA         35.8556  -46.0455  -52.9696 C.3       1 UNK         0.0863 
      6 C6         35.5839  -45.5822  -54.4270 C.3       11 UNK        -0.0953 
      7 S7         33.8110  -45.4885  -54.8665 S.3       11 UNK        -0.2369 
      8 C8         33.5626  -43.6858  -54.8475 C.3       11 UNK         0.0226 
      9 C9         32.0990  -43.3308  -54.6489 C.ar      11 UNK        -0.0699 
     10 C10        31.5324  -43.4177  -53.3747 C.ar      11 UNK        -0.0804 
     11 C11        30.1917  -43.0852  -53.1669 C.ar      11 UNK        -0.0871 
     12 C12        29.4164  -42.6515  -54.2454 C.ar      11 UNK        -0.1008 
     13 C13        29.9778  -42.5418  -55.5217 C.ar      11 UNK        -0.0735 
     14 C14        31.3172  -42.8915  -55.7214 C.ar      11 UNK        -0.0945 
     15 C15        29.1397  -42.0201  -56.6762 C.3       11 UNK         0.0169 
     16 S16        28.4269  -43.3853  -57.6361 S.3       11 UNK        -0.2669 
     17 C17        26.9720  -42.5438  -58.3561 C.3       11 UNK        -0.0850 
     18 CA         26.0936  -43.4695  -59.2386 C.3       10 UNK         0.0855 
     19 C          26.6795  -43.6439  -60.6723 C.2       10 UNK         0.5543 
     20 N          26.9952  -44.8474  -61.1356 N.am      10 UNK        -0.7343 
     21 O          26.8358  -42.6583  -61.3891 O.2       10 UNK        -0.5027 
     22 N          25.7798  -44.7165  -58.5304 N.am      10 UNK        -0.4495 
     23 C          24.7706  -45.5485  -58.8013 C.2       10 UNK         0.4903 
     24 O          23.8807  -45.3064  -59.6183 O.2       10 UNK        -0.4860 
     25 CA         24.7804  -46.8814  -58.0257 C.3       9 UNK         0.0227 
     26 CB         23.9133  -47.9675  -58.6953 C.3       9 UNK        -0.1964 
     27 N          26.1337  -47.3959  -57.7667 N.am      9 UNK        -0.4231 
     28 C          27.0809  -47.6884  -58.6743 C.2       9 UNK         0.5014 
     29 O          26.9660  -47.4855  -59.8836 O.2       9 UNK        -0.5270 
     30 CA         28.3756  -48.3269  -58.1434 C.3       8 UNK         0.0284 
     31 CB         29.3505  -47.2466  -57.6451 C.3       8 UNK        -0.1977 
     32 N          28.1200  -49.2977  -57.0767 N.am      8 UNK        -0.4342 
     33 C          27.4404  -50.4443  -57.2348 C.2       8 UNK         0.5039 
     34 O          27.0614  -50.8727  -58.3257 O.2       8 UNK        -0.5547 
     35 CA         27.0851  -51.2294  -55.9628 C.3       7 UNK         0.0281 
     36 CB         28.2270  -52.1631  -55.5417 C.3       7 UNK        -0.1963 
     37 N          26.7402  -50.3375  -54.8550 N.am      7 UNK        -0.4444 
     38 C          25.5460  -49.7472  -54.7140 C.2       7 UNK         0.5104 
     39 O          24.5931  -49.9339  -55.4702 O.2       7 UNK        -0.5100 
     40 CA         25.3817  -48.7826  -53.5283 C.3       6 UNK         0.0396 
     41 CB         24.8293  -49.5282  -52.3033 C.3       6 UNK        -0.1801 
     42 N          26.6207  -48.0939  -53.1581 N.am      6 UNK        -0.4747 
     43 C          27.2045  -47.1321  -53.8879 C.2       6 UNK         0.5012 
     44 O          26.7933  -46.7606  -54.9882 O.2       6 UNK        -0.5003 
     45 CA         28.4751  -46.5023  -53.2807 C.3       5 UNK         0.0782 
     46 C46        28.0790  -45.5334  -52.1333 C.3       11 UNK        -0.0868 
     47 S47        29.4951  -44.8848  -51.1798 S.3       11 UNK        -0.2515 
     48 C48        29.5998  -43.1671  -51.7686 C.3       11 UNK         0.0199 
     49 N          29.4678  -47.4989  -52.8509 N.am      5 UNK        -0.4607 
     50 C          29.9993  -48.4680  -53.6072 C.2       4 UNK         0.5031 
     51 O          29.5930  -48.7506  -54.7338 O.2       4 UNK        -0.5119 
     52 CA         31.1554  -49.2603  -52.9711 C.3       4 UNK         0.0263 
     53 CB         30.6649  -50.5989  -52.3856 C.3       4 UNK        -0.1967 
     54 N          32.2985  -49.4367  -53.8783 N.am      4 UNK        -0.4237 
     55 C          32.3971  -50.1917  -54.9874 C.2       3 UNK         0.4908 
     56 O          31.5300  -50.9622  -55.3944 O.2       3 UNK        -0.5102 
     57 CA         33.7065  -50.0917  -55.7932 C.3       3 UNK         0.0241 
     58 CB         33.5471  -49.0808  -56.9413 C.3       3 UNK        -0.1971 
     59 N          34.8680  -49.7220  -54.9833 N.am      3 UNK        -0.4139 
     60 C          35.4113  -50.4814  -54.0208 C.2       2 UNK         0.5016 
     61 O          35.0592  -51.6364  -53.7790 O.2       2 UNK        -0.5319 
     62 CA         36.5251  -49.8425  -53.1678 C.3       2 UNK         0.0286 
     63 CB         37.8998  -50.3973  -53.5760 C.3       2 UNK        -0.1963 
     64 N          36.5682  -48.3741  -53.2173 N.am      2 UNK        -0.4790 
     65 C          35.5929  -47.5551  -52.7968 C.2       1 UNK         0.5024 
     66 O          34.5132  -47.9526  -52.3496 O.2       1 UNK        -0.4888 
     67 H67        33.9996  -45.0392  -49.0369 H         1 UNK         0.0892 
     68 H68        34.8924  -43.5481  -49.3494 H         1 UNK         0.0892 
     69 H69        33.5496  -44.0100  -50.3966 H         1 UNK         0.0892 
     70 H70        34.2244  -44.8866  -52.3478 H         1 UNK         0.3107 
     71 H71        36.9155  -45.8781  -52.7648 H         1 UNK         0.0773 
     72 H72        36.0796  -46.2393  -55.1440 H         1 UNK         0.0680 
     73 H73        36.0414  -44.6041  -54.5827 H         1 UNK         0.0680 
     74 H74        33.9437  -43.2625  -55.7782 H         1 UNK         0.0650 
     75 H75        34.1467  -43.2362  -54.0431 H         1 UNK         0.0650 
     76 H76        32.1330  -43.7493  -52.5398 H         1 UNK         0.1397 
     77 H77        28.3798  -42.3840  -54.0910 H         1 UNK         0.1363 
     78 H78        31.7503  -42.8127  -56.7093 H         1 UNK         0.1355 
     79 H79        28.3439  -41.3794  -56.2929 H         1 UNK         0.0707 
     80 H80        29.7465  -41.3951  -57.3332 H         1 UNK         0.0707 
     81 H81        26.3641  -42.1652  -57.5327 H         1 UNK         0.1034 
     82 H82        27.2978  -41.6598  -58.9083 H         1 UNK         0.1034 
     83 H83        25.1455  -42.9497  -59.3886 H         1 UNK         0.0482 
     84 H84        26.8732  -45.6828  -60.5713 H         1 UNK         0.3460 
     85 H85        27.3652  -44.9295  -62.0687 H         1 UNK         0.3460 
     86 H86        26.4713  -45.0069  -57.8535 H         1 UNK         0.2989 
     87 H87        24.3470  -46.6682  -57.0475 H         1 UNK         0.0559 
     88 H88        24.2633  -48.1992  -59.7018 H         1 UNK         0.0848 
     89 H89        22.8741  -47.6468  -58.7766 H         1 UNK         0.0848 
     90 H90        23.9218  -48.8917  -58.1169 H         1 UNK         0.0848 
     91 H91        26.3745  -47.5027  -56.7849 H         1 UNK         0.3144 
     92 H92        28.8489  -48.8585  -58.9714 H         1 UNK         0.0727 
     93 H93        28.9457  -46.6944  -56.7961 H         1 UNK         0.0790 
     94 H94        29.5666  -46.5216  -58.4311 H         1 UNK         0.0790 
     95 H95        30.3002  -47.6830  -57.3345 H         1 UNK         0.0790 
     96 H96        28.4919  -49.0683  -56.1554 H         1 UNK         0.3215 
     97 H97        26.2178  -51.8523  -56.1941 H         1 UNK         0.0863 
     98 H98        27.9344  -52.7973  -54.7049 H         1 UNK         0.0808 
     99 H99        29.1073  -51.5988  -55.2424 H         1 UNK         0.0808 
    100 H100       28.5212  -52.8191  -56.3619 H         1 UNK         0.0808 
    101 H101       27.4796  -50.0908  -54.2129 H         1 UNK         0.3118 
    102 H102       24.6505  -48.0257  -53.8212 H         1 UNK         0.0546 
    103 H103       25.5228  -50.2901  -51.9452 H         1 UNK         0.0828 
    104 H104       23.8908  -50.0301  -52.5434 H         1 UNK         0.0828 
    105 H105       24.6257  -48.8438  -51.4796 H         1 UNK         0.0828 
    106 H106       27.0406  -48.3480  -52.2750 H         1 UNK         0.3005 
    107 H107       28.9482  -45.9138  -54.0709 H         1 UNK         0.1257 
    108 H108       27.4283  -46.0336  -51.4133 H         1 UNK         0.0775 
    109 H109       27.4956  -44.7002  -52.5301 H         1 UNK         0.0775 
    110 H110       28.6144  -42.7006  -51.7252 H         1 UNK         0.0840 
    111 H111       30.2324  -42.6007  -51.0836 H         1 UNK         0.0840 
    112 H112       29.8513  -47.3381  -51.9303 H         1 UNK         0.2987 
    113 H113       31.5475  -48.6677  -52.1427 H         1 UNK         0.0785 
    114 H114       29.9099  -50.4332  -51.6162 H         1 UNK         0.0798 
    115 H115       31.4831  -51.1517  -51.9240 H         1 UNK         0.0798 
    116 H116       30.2151  -51.2393  -53.1437 H         1 UNK         0.0798 
    117 H117       33.1016  -48.8659  -53.6383 H         1 UNK         0.3079 
    118 H118       33.9013  -51.0752  -56.2265 H         1 UNK         0.0794 
    119 H119       32.7059  -49.3499  -57.5820 H         1 UNK         0.0786 
    120 H120       34.4360  -49.0493  -57.5716 H         1 UNK         0.0786 
    121 H121       33.3604  -48.0726  -56.5694 H         1 UNK         0.0786 
    122 H122       35.2398  -48.7935  -55.1169 H         1 UNK         0.3032 
    123 H123       36.3317  -50.1315  -52.1321 H         1 UNK         0.1094 
    124 H124       38.6880  -50.0328  -52.9168 H         1 UNK         0.0794 
    125 H125       37.9141  -51.4869  -53.5202 H         1 UNK         0.0794 
    126 H126       38.1599  -50.1207  -54.5985 H         1 UNK         0.0794 
    127 H127       37.4178  -47.9663  -53.5827 H         1 UNK         0.3016 
@<TRIPOS>BOND
     1    1    2 1    
     2    1   67 1    
     3    1   68 1    
     4    1   69 1    
     5    2    3 2    
     6    2    4 am   BACKBONE|DICT|INTERRES
     7    4    5 1    
     8    4   70 1    
     9    5    6 1    
    10    5   65 1    
    11    5   71 1    
    12    6    7 1    
    13    6   72 1    
    14    6   73 1    
    15    7    8 1    
    16    8    9 1    
    17    8   74 1    
    18    8   75 1    
    19    9   10 ar   
    20    9   14 ar   
    21   10   11 ar   
    22   10   76 1    
    23   11   12 ar   
    24   11   48 1    
    25   12   13 ar   
    26   12   77 1    
    27   13   14 ar   
    28   13   15 1    
    29   14   78 1    
    30   15   16 1    
    31   15   79 1    
    32   15   80 1    
    33   16   17 1    
    34   17   18 1    
    35   17   81 1    
    36   17   82 1    
    37   18   19 1    
    38   18   22 1    
    39   18   83 1    
    40   19   20 am   BACKBONE|DICT|INTERRES
    41   19   21 2    
    42   20   84 1    
    43   20   85 1    
    44   22   23 am   BACKBONE|DICT|INTERRES
    45   22   86 1    
    46   23   24 2    
    47   23   25 1    
    48   25   26 1    
    49   25   27 1    
    50   25   87 1    
    51   26   88 1    
    52   26   89 1    
    53   26   90 1    
    54   27   28 am   BACKBONE|DICT|INTERRES
    55   27   91 1    
    56   28   29 2    
    57   28   30 1    
    58   30   31 1    
    59   30   32 1    
    60   30   92 1    
    61   31   93 1    
    62   31   94 1    
    63   31   95 1    
    64   32   33 am   BACKBONE|DICT|INTERRES
    65   32   96 1    
    66   33   34 2    
    67   33   35 1    
    68   35   36 1    
    69   35   37 1    
    70   35   97 1    
    71   36   98 1    
    72   36   99 1    
    73   36  100 1    
    74   37   38 am   BACKBONE|DICT|INTERRES
    75   37  101 1    
    76   38   39 2    
    77   38   40 1    
    78   40   41 1    
    79   40   42 1    
    80   40  102 1    
    81   41  103 1    
    82   41  104 1    
    83   41  105 1    
    84   42   43 am   BACKBONE|DICT|INTERRES
    85   42  106 1    
    86   43   44 2    
    87   43   45 1    
    88   45   46 1    
    89   45   49 1    
    90   45  107 1    
    91   46   47 1    
    92   46  108 1    
    93   46  109 1    
    94   47   48 1    
    95   48  110 1    
    96   48  111 1    
    97   49   50 am   BACKBONE|DICT|INTERRES
    98   49  112 1    
    99   50   51 2    
   100   50   52 1    
   101   52   53 1    
   102   52   54 1    
   103   52  113 1    
   104   53  114 1    
   105   53  115 1    
   106   53  116 1    
   107   54   55 am   BACKBONE|DICT|INTERRES
   108   54  117 1    
   109   55   56 2    
   110   55   57 1    
   111   57   58 1    
   112   57   59 1    
   113   57  118 1    
   114   58  119 1    
   115   58  120 1    
   116   58  121 1    
   117   59   60 am   BACKBONE|DICT|INTERRES
   118   59  122 1    
   119   60   61 2    
   120   60   62 1    
   121   62   63 1    
   122   62   64 1    
   123   62  123 1    
   124   63  124 1    
   125   63  125 1    
   126   63  126 1    
   127   64   65 am   BACKBONE|DICT|INTERRES
   128   64  127 1    
   129   65   66 2    
@<TRIPOS>SUBSTRUCTURE
     1 UNK         1 GROUP             0       ****    0 ROOT    
