@<TRIPOS>MOLECULE
3R134
127   129    1
SMALL
USER_CHARGES


@<TRIPOS>ATOM
      1 CA         36.2352  -44.8168  -47.8344 C.3       0 UNK        -0.1968 
      2 C          35.7739  -45.0917  -49.2584 C.2       0 UNK         0.4852 
      3 O          34.7083  -45.6791  -49.4484 O.2       0 UNK        -0.5359 
      4 N          36.5678  -44.6672  -50.2519 N.am      1 UNK        -0.4300 
      5 CA         36.3481  -44.8574  -51.6890 C.3       1 UNK         0.0863 
      6 C6         35.0678  -44.1395  -52.2119 C.3       11 UNK        -0.0953 
      7 S7         35.1412  -43.7859  -54.0035 S.3       11 UNK        -0.2369 
      8 C8         33.8641  -44.8892  -54.6915 C.3       11 UNK         0.0226 
      9 C9         32.4967  -44.2264  -54.7774 C.ar      11 UNK        -0.0699 
     10 C10        31.7332  -44.0164  -53.6256 C.ar      11 UNK        -0.0804 
     11 C11        30.4572  -43.4512  -53.7077 C.ar      11 UNK        -0.0871 
     12 C12        29.9374  -43.1062  -54.9584 C.ar      11 UNK        -0.1008 
     13 C13        30.6856  -43.3243  -56.1192 C.ar      11 UNK        -0.0735 
     14 C14        31.9695  -43.8685  -56.0213 C.ar      11 UNK        -0.0945 
     15 C15        30.0952  -43.0110  -57.4834 C.3       11 UNK         0.0169 
     16 S16        29.6063  -44.5485  -58.3182 S.3       11 UNK        -0.2669 
     17 C17        28.5482  -43.9111  -59.6628 C.3       11 UNK        -0.0850 
     18 CA         27.0425  -43.8375  -59.2841 C.3       10 UNK         0.0855 
     19 C          26.1939  -43.4342  -60.5252 C.2       10 UNK         0.5543 
     20 N          25.3760  -44.3177  -61.0852 N.am      10 UNK        -0.7343 
     21 O          26.2858  -42.2997  -60.9871 O.2       10 UNK        -0.5027 
     22 N          26.6030  -45.0584  -58.5937 N.am      10 UNK        -0.4495 
     23 C          25.4444  -45.2456  -57.9509 C.2       10 UNK         0.4903 
     24 O          24.5673  -44.3865  -57.8542 O.2       10 UNK        -0.4860 
     25 CA         25.2503  -46.6194  -57.2768 C.3       9 UNK         0.0227 
     26 CB         23.7825  -47.0947  -57.2975 C.3       9 UNK        -0.1964 
     27 N          26.1568  -47.6592  -57.7854 N.am      9 UNK        -0.4231 
     28 C          26.1924  -48.1783  -59.0236 C.2       9 UNK         0.5014 
     29 O          25.4183  -47.8615  -59.9275 O.2       9 UNK        -0.5270 
     30 CA         27.3008  -49.1995  -59.3157 C.3       8 UNK         0.0284 
     31 CB         28.5608  -48.4845  -59.8358 C.3       8 UNK        -0.1977 
     32 N          27.6391  -49.9816  -58.1230 N.am      8 UNK        -0.4342 
     33 C          27.2681  -51.2520  -57.9205 C.2       8 UNK         0.5039 
     34 O          26.6291  -51.9200  -58.7350 O.2       8 UNK        -0.5547 
     35 CA         27.6826  -51.9011  -56.5902 C.3       7 UNK         0.0281 
     36 CB         29.1195  -52.4423  -56.6719 C.3       7 UNK        -0.1963 
     37 N          27.5571  -51.0166  -55.4292 N.am      7 UNK        -0.4444 
     38 C          26.3900  -50.6289  -54.8934 C.2       7 UNK         0.5104 
     39 O          25.2908  -50.8897  -55.3825 O.2       7 UNK        -0.5100 
     40 CA         26.4538  -49.8412  -53.5759 C.3       6 UNK         0.0396 
     41 CB         26.7075  -50.7935  -52.3958 C.3       6 UNK        -0.1801 
     42 N          27.5091  -48.8304  -53.6129 N.am      6 UNK        -0.4747 
     43 C          27.3043  -47.5119  -53.7450 C.2       6 UNK         0.5012 
     44 O          26.1882  -46.9930  -53.7649 O.2       6 UNK        -0.5003 
     45 CA         28.5570  -46.6166  -53.8943 C.3       5 UNK         0.0782 
     46 C46        28.9511  -45.9841  -52.5311 C.3       11 UNK        -0.0868 
     47 S47        28.1987  -44.3343  -52.3242 S.3       11 UNK        -0.2515 
     48 C48        29.6415  -43.2256  -52.4410 C.3       11 UNK         0.0199 
     49 N          29.6928  -47.2986  -54.5261 N.am      5 UNK        -0.4607 
     50 C          29.6743  -47.8629  -55.7420 C.2       4 UNK         0.5031 
     51 O          28.6910  -47.8663  -56.4830 O.2       4 UNK        -0.5119 
     52 CA         30.9322  -48.6329  -56.1780 C.3       4 UNK         0.0263 
     53 CB         31.8848  -47.6971  -56.9374 C.3       4 UNK        -0.1967 
     54 N          31.6609  -49.2865  -55.0830 N.am      4 UNK        -0.4237 
     55 C          31.1470  -50.0969  -54.1434 C.2       3 UNK         0.4908 
     56 O          29.9565  -50.4116  -54.0964 O.2       3 UNK        -0.5102 
     57 CA         32.0983  -50.6433  -53.0598 C.3       3 UNK         0.0241 
     58 CB         32.2251  -52.1707  -53.1878 C.3       3 UNK        -0.1971 
     59 N          33.4432  -50.0512  -53.0465 N.am      3 UNK        -0.4139 
     60 C          33.7307  -48.7728  -52.7661 C.2       2 UNK         0.5016 
     61 O          32.8775  -47.9166  -52.5113 O.2       2 UNK        -0.5319 
     62 CA         35.2128  -48.3781  -52.8394 C.3       2 UNK         0.0286 
     63 CB         35.7426  -48.4919  -54.2854 C.3       2 UNK        -0.1963 
     64 N          35.3396  -47.0037  -52.3680 N.am      2 UNK        -0.4790 
     65 C          36.4654  -46.3536  -52.0597 C.2       1 UNK         0.5024 
     66 O          37.5785  -46.8827  -52.0636 O.2       1 UNK        -0.4888 
     67 H67        35.4945  -44.2131  -47.3106 H         1 UNK         0.0892 
     68 H68        36.3560  -45.7542  -47.2921 H         1 UNK         0.0892 
     69 H69        37.1860  -44.2848  -47.8076 H         1 UNK         0.0892 
     70 H70        37.4411  -44.2164  -50.0152 H         1 UNK         0.3107 
     71 H71        37.2031  -44.3717  -52.1626 H         1 UNK         0.0773 
     72 H72        34.1629  -44.6854  -51.9498 H         1 UNK         0.0680 
     73 H73        34.9699  -43.1722  -51.7170 H         1 UNK         0.0680 
     74 H74        33.7811  -45.8023  -54.1065 H         1 UNK         0.0650 
     75 H75        34.1918  -45.2035  -55.6835 H         1 UNK         0.0650 
     76 H76        32.1237  -44.3038  -52.6612 H         1 UNK         0.1397 
     77 H77        28.9419  -42.6888  -55.0266 H         1 UNK         0.1363 
     78 H78        32.5417  -44.0448  -56.9219 H         1 UNK         0.1355 
     79 H79        30.8239  -42.4764  -58.0945 H         1 UNK         0.0707 
     80 H80        29.2274  -42.3571  -57.3827 H         1 UNK         0.0707 
     81 H81        28.6878  -44.5710  -60.5215 H         1 UNK         0.1034 
     82 H82        28.9133  -42.9315  -59.9779 H         1 UNK         0.1034 
     83 H83        26.9270  -43.0253  -58.5641 H         1 UNK         0.0482 
     84 H84        24.8289  -44.0490  -61.8877 H         1 UNK         0.3460 
     85 H85        25.2982  -45.2501  -60.7070 H         1 UNK         0.3460 
     86 H86        27.2746  -45.8112  -58.5848 H         1 UNK         0.2989 
     87 H87        25.5284  -46.4715  -56.2344 H         1 UNK         0.0559 
     88 H88        23.3998  -47.1910  -58.3137 H         1 UNK         0.0848 
     89 H89        23.1359  -46.3894  -56.7741 H         1 UNK         0.0848 
     90 H90        23.6729  -48.0600  -56.8029 H         1 UNK         0.0848 
     91 H91        26.9168  -47.9072  -57.1574 H         1 UNK         0.3144 
     92 H92        26.9394  -49.8554  -60.1105 H         1 UNK         0.0727 
     93 H93        29.3468  -49.1989  -60.0809 H         1 UNK         0.0790 
     94 H94        28.9660  -47.7797  -59.1093 H         1 UNK         0.0790 
     95 H95        28.3411  -47.9217  -60.7442 H         1 UNK         0.0790 
     96 H96        28.1343  -49.4876  -57.3876 H         1 UNK         0.3215 
     97 H97        27.0179  -52.7524  -56.4262 H         1 UNK         0.0863 
     98 H98        29.3937  -52.9777  -55.7626 H         1 UNK         0.0808 
     99 H99        29.8475  -51.6456  -56.8209 H         1 UNK         0.0808 
    100 H100       29.2263  -53.1405  -57.5032 H         1 UNK         0.0808 
    101 H101       28.4202  -50.7835  -54.9409 H         1 UNK         0.3118 
    102 H102       25.4796  -49.3723  -53.4223 H         1 UNK         0.0546 
    103 H103       25.9395  -51.5666  -52.3457 H         1 UNK         0.0828 
    104 H104       26.6898  -50.2581  -51.4466 H         1 UNK         0.0828 
    105 H105       27.6725  -51.2958  -52.4777 H         1 UNK         0.0828 
    106 H106       28.4629  -49.1770  -53.6371 H         1 UNK         0.3005 
    107 H107       28.2828  -45.8211  -54.5920 H         1 UNK         0.1257 
    108 H108       30.0334  -45.8910  -52.4397 H         1 UNK         0.0775 
    109 H109       28.6585  -46.6119  -51.6867 H         1 UNK         0.0775 
    110 H110       29.2952  -42.1914  -52.4162 H         1 UNK         0.0840 
    111 H111       30.2607  -43.3587  -51.5523 H         1 UNK         0.0840 
    112 H112       30.5414  -47.3633  -53.9816 H         1 UNK         0.2987 
    113 H113       30.6099  -49.4159  -56.8654 H         1 UNK         0.0785 
    114 H114       32.2760  -46.9117  -56.2907 H         1 UNK         0.0798 
    115 H115       31.3726  -47.2077  -57.7675 H         1 UNK         0.0798 
    116 H116       32.7305  -48.2419  -57.3571 H         1 UNK         0.0798 
    117 H117       32.6484  -49.0901  -55.0279 H         1 UNK         0.3079 
    118 H118       31.6325  -50.4203  -52.0977 H         1 UNK         0.0794 
    119 H119       32.6986  -52.4592  -54.1271 H         1 UNK         0.0786 
    120 H120       31.2455  -52.6504  -53.1571 H         1 UNK         0.0786 
    121 H121       32.8121  -52.5911  -52.3709 H         1 UNK         0.0786 
    122 H122       34.2054  -50.6802  -53.2574 H         1 UNK         0.3032 
    123 H123       35.7808  -49.0348  -52.1767 H         1 UNK         0.1094 
    124 H124       36.7954  -48.2171  -54.3495 H         1 UNK         0.0794 
    125 H125       35.6631  -49.5119  -54.6626 H         1 UNK         0.0794 
    126 H126       35.1907  -47.8458  -54.9691 H         1 UNK         0.0794 
    127 H127       34.4467  -46.5419  -52.2387 H         1 UNK         0.3016 
@<TRIPOS>BOND
     1    1    2 1    
     2    1   67 1    
     3    1   68 1    
     4    1   69 1    
     5    2    3 2    
     6    2    4 am   BACKBONE|DICT|INTERRES
     7    4    5 1    
     8    4   70 1    
     9    5    6 1    
    10    5   65 1    
    11    5   71 1    
    12    6    7 1    
    13    6   72 1    
    14    6   73 1    
    15    7    8 1    
    16    8    9 1    
    17    8   74 1    
    18    8   75 1    
    19    9   10 ar   
    20    9   14 ar   
    21   10   11 ar   
    22   10   76 1    
    23   11   12 ar   
    24   11   48 1    
    25   12   13 ar   
    26   12   77 1    
    27   13   14 ar   
    28   13   15 1    
    29   14   78 1    
    30   15   16 1    
    31   15   79 1    
    32   15   80 1    
    33   16   17 1    
    34   17   18 1    
    35   17   81 1    
    36   17   82 1    
    37   18   19 1    
    38   18   22 1    
    39   18   83 1    
    40   19   20 am   BACKBONE|DICT|INTERRES
    41   19   21 2    
    42   20   84 1    
    43   20   85 1    
    44   22   23 am   BACKBONE|DICT|INTERRES
    45   22   86 1    
    46   23   24 2    
    47   23   25 1    
    48   25   26 1    
    49   25   27 1    
    50   25   87 1    
    51   26   88 1    
    52   26   89 1    
    53   26   90 1    
    54   27   28 am   BACKBONE|DICT|INTERRES
    55   27   91 1    
    56   28   29 2    
    57   28   30 1    
    58   30   31 1    
    59   30   32 1    
    60   30   92 1    
    61   31   93 1    
    62   31   94 1    
    63   31   95 1    
    64   32   33 am   BACKBONE|DICT|INTERRES
    65   32   96 1    
    66   33   34 2    
    67   33   35 1    
    68   35   36 1    
    69   35   37 1    
    70   35   97 1    
    71   36   98 1    
    72   36   99 1    
    73   36  100 1    
    74   37   38 am   BACKBONE|DICT|INTERRES
    75   37  101 1    
    76   38   39 2    
    77   38   40 1    
    78   40   41 1    
    79   40   42 1    
    80   40  102 1    
    81   41  103 1    
    82   41  104 1    
    83   41  105 1    
    84   42   43 am   BACKBONE|DICT|INTERRES
    85   42  106 1    
    86   43   44 2    
    87   43   45 1    
    88   45   46 1    
    89   45   49 1    
    90   45  107 1    
    91   46   47 1    
    92   46  108 1    
    93   46  109 1    
    94   47   48 1    
    95   48  110 1    
    96   48  111 1    
    97   49   50 am   BACKBONE|DICT|INTERRES
    98   49  112 1    
    99   50   51 2    
   100   50   52 1    
   101   52   53 1    
   102   52   54 1    
   103   52  113 1    
   104   53  114 1    
   105   53  115 1    
   106   53  116 1    
   107   54   55 am   BACKBONE|DICT|INTERRES
   108   54  117 1    
   109   55   56 2    
   110   55   57 1    
   111   57   58 1    
   112   57   59 1    
   113   57  118 1    
   114   58  119 1    
   115   58  120 1    
   116   58  121 1    
   117   59   60 am   BACKBONE|DICT|INTERRES
   118   59  122 1    
   119   60   61 2    
   120   60   62 1    
   121   62   63 1    
   122   62   64 1    
   123   62  123 1    
   124   63  124 1    
   125   63  125 1    
   126   63  126 1    
   127   64   65 am   BACKBONE|DICT|INTERRES
   128   64  127 1    
   129   65   66 2    
@<TRIPOS>SUBSTRUCTURE
     1 UNK         1 GROUP             0       ****    0 ROOT    
