@<TRIPOS>MOLECULE
3R134
127   129    1
SMALL
USER_CHARGES


@<TRIPOS>ATOM
      1 CA         30.0262  -45.1654  -52.5659 C.3       0 UNK        -0.1968 
      2 C          31.3355  -45.1572  -51.7962 C.2       0 UNK         0.4852 
      3 O          31.3653  -45.5731  -50.6377 O.2       0 UNK        -0.5359 
      4 N          32.4230  -44.7047  -52.4355 N.am      1 UNK        -0.4300 
      5 CA         33.7777  -44.6732  -51.8627 C.3       1 UNK         0.0863 
      6 C6         34.6852  -43.6412  -52.5787 C.3       11 UNK        -0.0953 
      7 S7         34.0141  -41.9445  -52.4788 S.3       11 UNK        -0.2369 
      8 C8         34.1042  -41.3745  -54.2065 C.3       11 UNK         0.0226 
      9 C9         33.0834  -42.0654  -55.0989 C.ar      11 UNK        -0.0699 
     10 C10        33.4794  -43.1086  -55.9408 C.ar      11 UNK        -0.0804 
     11 C11        32.5468  -43.7559  -56.7546 C.ar      11 UNK        -0.0871 
     12 C12        31.2146  -43.3309  -56.7476 C.ar      11 UNK        -0.1008 
     13 C13        30.8055  -42.2884  -55.9121 C.ar      11 UNK        -0.0735 
     14 C14        31.7450  -41.6572  -55.0900 C.ar      11 UNK        -0.0945 
     15 C15        29.3446  -41.8651  -55.8867 C.3       11 UNK         0.0169 
     16 S16        28.4510  -42.7463  -54.5723 S.3       11 UNK        -0.2669 
     17 C17        26.7127  -42.3243  -54.9257 C.3       11 UNK        -0.0850 
     18 CA         25.8746  -43.5764  -55.2965 C.3       10 UNK         0.0855 
     19 C          24.3627  -43.2237  -55.3453 C.2       10 UNK         0.5543 
     20 N          23.6586  -43.3581  -54.2301 N.am      10 UNK        -0.7343 
     21 O          23.8374  -42.7872  -56.3681 O.2       10 UNK        -0.5027 
     22 N          26.3449  -44.1863  -56.5485 N.am      10 UNK        -0.4495 
     23 C          25.9761  -45.3870  -57.0122 C.2       10 UNK         0.4903 
     24 O          25.2534  -46.1683  -56.3914 O.2       10 UNK        -0.4860 
     25 CA         26.4678  -45.7700  -58.4185 C.3       9 UNK         0.0227 
     26 CB         27.6357  -44.9042  -58.9426 C.3       9 UNK        -0.1964 
     27 N          26.8661  -47.1763  -58.4442 N.am      9 UNK        -0.4231 
     28 C          26.6636  -48.0107  -59.4700 C.2       9 UNK         0.5014 
     29 O          26.0201  -47.7104  -60.4775 O.2       9 UNK        -0.5270 
     30 CA         27.3237  -49.3981  -59.4079 C.3       8 UNK         0.0284 
     31 CB         28.7117  -49.3457  -60.0680 C.3       8 UNK        -0.1977 
     32 N          27.4522  -49.9585  -58.0601 N.am      8 UNK        -0.4342 
     33 C          26.4453  -50.5276  -57.3829 C.2       8 UNK         0.5039 
     34 O          25.2782  -50.5430  -57.7767 O.2       8 UNK        -0.5547 
     35 CA         26.8022  -51.2355  -56.0642 C.3       7 UNK         0.0281 
     36 CB         27.5290  -52.5642  -56.3318 C.3       7 UNK        -0.1963 
     37 N          27.6205  -50.3980  -55.1904 N.am      7 UNK        -0.4444 
     38 C          27.1434  -49.3869  -54.4524 C.2       7 UNK         0.5104 
     39 O          25.9468  -49.1171  -54.3490 O.2       7 UNK        -0.5100 
     40 CA         28.1768  -48.5205  -53.7091 C.3       6 UNK         0.0396 
     41 CB         28.4488  -49.0855  -52.3060 C.3       6 UNK        -0.1801 
     42 N          29.4444  -48.3792  -54.4311 N.am      6 UNK        -0.4747 
     43 C          29.5740  -47.8145  -55.6404 C.2       6 UNK         0.5012 
     44 O          28.6409  -47.3252  -56.2727 O.2       6 UNK        -0.5003 
     45 CA         30.9767  -47.8286  -56.2698 C.3       5 UNK         0.0782 
     46 C46        31.8230  -46.6767  -55.6890 C.3       11 UNK        -0.0868 
     47 S47        33.3772  -46.4053  -56.6007 S.3       11 UNK        -0.2515 
     48 C48        32.9700  -44.9413  -57.6119 C.3       11 UNK         0.0199 
     49 N          31.6228  -49.1345  -56.1167 N.am      5 UNK        -0.4607 
     50 C          31.1813  -50.2726  -56.6687 C.2       4 UNK         0.5031 
     51 O          30.1937  -50.3412  -57.3983 O.2       4 UNK        -0.5119 
     52 CA         31.9378  -51.5582  -56.3004 C.3       4 UNK         0.0263 
     53 CB         33.2188  -51.6935  -57.1386 C.3       4 UNK        -0.1967 
     54 N          32.2688  -51.6159  -54.8749 N.am      4 UNK        -0.4237 
     55 C          31.3616  -51.6913  -53.8895 C.2       3 UNK         0.4908 
     56 O          30.1495  -51.7957  -54.0798 O.2       3 UNK        -0.5102 
     57 CA         31.8958  -51.5821  -52.4497 C.3       3 UNK         0.0241 
     58 CB         32.3235  -52.9620  -51.9249 C.3       3 UNK        -0.1971 
     59 N          33.0073  -50.6314  -52.3089 N.am      3 UNK        -0.4139 
     60 C          32.9144  -49.3210  -52.5723 C.2       2 UNK         0.5016 
     61 O          31.8782  -48.7760  -52.9650 O.2       2 UNK        -0.5319 
     62 CA         34.1930  -48.4868  -52.4210 C.3       2 UNK         0.0286 
     63 CB         35.1651  -48.7446  -53.5868 C.3       2 UNK        -0.1963 
     64 N          33.8059  -47.0813  -52.4119 N.am      2 UNK        -0.4790 
     65 C          34.4472  -46.0694  -51.8174 C.2       1 UNK         0.5024 
     66 O          35.5265  -46.2040  -51.2389 O.2       1 UNK        -0.4888 
     67 H67        29.3385  -44.4329  -52.1445 H         1 UNK         0.0892 
     68 H68        30.1736  -44.9325  -53.6195 H         1 UNK         0.0892 
     69 H69        29.5601  -46.1467  -52.5007 H         1 UNK         0.0892 
     70 H70        32.3397  -44.3313  -53.3710 H         1 UNK         0.3107 
     71 H71        33.6877  -44.3550  -50.8217 H         1 UNK         0.0773 
     72 H72        34.8406  -43.9275  -53.6190 H         1 UNK         0.0680 
     73 H73        35.6764  -43.6208  -52.1216 H         1 UNK         0.0680 
     74 H74        35.1167  -41.5249  -54.5845 H         1 UNK         0.0650 
     75 H75        33.9297  -40.2978  -54.2279 H         1 UNK         0.0650 
     76 H76        34.5104  -43.4352  -55.9502 H         1 UNK         0.1397 
     77 H77        30.4871  -43.8315  -57.3713 H         1 UNK         0.1363 
     78 H78        31.4327  -40.8555  -54.4346 H         1 UNK         0.1355 
     79 H79        29.2650  -40.7892  -55.7239 H         1 UNK         0.0707 
     80 H80        28.8777  -42.0710  -56.8510 H         1 UNK         0.0707 
     81 H81        26.3100  -41.8488  -54.0291 H         1 UNK         0.1034 
     82 H82        26.6568  -41.5709  -55.7138 H         1 UNK         0.1034 
     83 H83        26.0142  -44.3202  -54.5088 H         1 UNK         0.0482 
     84 H84        22.6793  -43.1184  -54.2367 H         1 UNK         0.3460 
     85 H85        24.0825  -43.7060  -53.3840 H         1 UNK         0.3460 
     86 H86        26.9272  -43.6051  -57.1300 H         1 UNK         0.2989 
     87 H87        25.6113  -45.6215  -59.0790 H         1 UNK         0.0559 
     88 H88        27.3503  -43.8563  -59.0404 H         1 UNK         0.0848 
     89 H89        27.9540  -45.2329  -59.9321 H         1 UNK         0.0848 
     90 H90        28.5029  -44.9612  -58.2835 H         1 UNK         0.0848 
     91 H91        27.3922  -47.4890  -57.6294 H         1 UNK         0.3144 
     92 H92        26.7036  -50.0777  -59.9967 H         1 UNK         0.0727 
     93 H93        29.1680  -50.3348  -60.1122 H         1 UNK         0.0790 
     94 H94        29.3910  -48.6878  -59.5243 H         1 UNK         0.0790 
     95 H95        28.6455  -48.9734  -61.0912 H         1 UNK         0.0790 
     96 H96        28.3981  -50.0258  -57.6871 H         1 UNK         0.3215 
     97 H97        25.8681  -51.4660  -55.5469 H         1 UNK         0.0863 
     98 H98        27.7203  -53.1031  -55.4036 H         1 UNK         0.0808 
     99 H99        28.4871  -52.4131  -56.8301 H         1 UNK         0.0808 
    100 H100       26.9288  -53.2157  -56.9682 H         1 UNK         0.0808 
    101 H101       28.6151  -50.5894  -55.1597 H         1 UNK         0.3118 
    102 H102       27.7493  -47.5216  -53.5997 H         1 UNK         0.0546 
    103 H103       28.8575  -50.0950  -52.3517 H         1 UNK         0.0828 
    104 H104       27.5297  -49.1328  -51.7208 H         1 UNK         0.0828 
    105 H105       29.1549  -48.4657  -51.7532 H         1 UNK         0.0828 
    106 H106       30.2824  -48.7156  -53.9600 H         1 UNK         0.3005 
    107 H107       30.8429  -47.6506  -57.3395 H         1 UNK         0.1257 
    108 H108       32.0785  -46.8718  -54.6497 H         1 UNK         0.0775 
    109 H109       31.2412  -45.7573  -55.6702 H         1 UNK         0.0775 
    110 H110       33.8425  -44.6654  -58.2057 H         1 UNK         0.0840 
    111 H111       32.1868  -45.2066  -58.3239 H         1 UNK         0.0840 
    112 H112       32.4208  -49.1668  -55.5015 H         1 UNK         0.2987 
    113 H113       31.2861  -52.4041  -56.5301 H         1 UNK         0.0785 
    114 H114       32.9898  -51.6667  -58.2050 H         1 UNK         0.0798 
    115 H115       33.7234  -52.6395  -56.9416 H         1 UNK         0.0798 
    116 H116       33.9251  -50.8870  -56.9370 H         1 UNK         0.0798 
    117 H117       33.2442  -51.5461  -54.6256 H         1 UNK         0.3079 
    118 H118       31.0751  -51.2213  -51.8260 H         1 UNK         0.0794 
    119 H119       32.6104  -52.9154  -50.8741 H         1 UNK         0.0786 
    120 H120       33.1664  -53.3670  -52.4864 H         1 UNK         0.0786 
    121 H121       31.5050  -53.6792  -52.0031 H         1 UNK         0.0786 
    122 H122       33.8898  -51.0071  -51.9916 H         1 UNK         0.3032 
    123 H123       34.6662  -48.7428  -51.4703 H         1 UNK         0.1094 
    124 H124       34.7131  -48.5034  -54.5498 H         1 UNK         0.0794 
    125 H125       36.0693  -48.1440  -53.4865 H         1 UNK         0.0794 
    126 H126       35.4768  -49.7890  -53.6213 H         1 UNK         0.0794 
    127 H127       32.8804  -46.9172  -52.7867 H         1 UNK         0.3016 
@<TRIPOS>BOND
     1    1    2 1    
     2    1   67 1    
     3    1   68 1    
     4    1   69 1    
     5    2    3 2    
     6    2    4 am   BACKBONE|DICT|INTERRES
     7    4    5 1    
     8    4   70 1    
     9    5    6 1    
    10    5   65 1    
    11    5   71 1    
    12    6    7 1    
    13    6   72 1    
    14    6   73 1    
    15    7    8 1    
    16    8    9 1    
    17    8   74 1    
    18    8   75 1    
    19    9   10 ar   
    20    9   14 ar   
    21   10   11 ar   
    22   10   76 1    
    23   11   12 ar   
    24   11   48 1    
    25   12   13 ar   
    26   12   77 1    
    27   13   14 ar   
    28   13   15 1    
    29   14   78 1    
    30   15   16 1    
    31   15   79 1    
    32   15   80 1    
    33   16   17 1    
    34   17   18 1    
    35   17   81 1    
    36   17   82 1    
    37   18   19 1    
    38   18   22 1    
    39   18   83 1    
    40   19   20 am   BACKBONE|DICT|INTERRES
    41   19   21 2    
    42   20   84 1    
    43   20   85 1    
    44   22   23 am   BACKBONE|DICT|INTERRES
    45   22   86 1    
    46   23   24 2    
    47   23   25 1    
    48   25   26 1    
    49   25   27 1    
    50   25   87 1    
    51   26   88 1    
    52   26   89 1    
    53   26   90 1    
    54   27   28 am   BACKBONE|DICT|INTERRES
    55   27   91 1    
    56   28   29 2    
    57   28   30 1    
    58   30   31 1    
    59   30   32 1    
    60   30   92 1    
    61   31   93 1    
    62   31   94 1    
    63   31   95 1    
    64   32   33 am   BACKBONE|DICT|INTERRES
    65   32   96 1    
    66   33   34 2    
    67   33   35 1    
    68   35   36 1    
    69   35   37 1    
    70   35   97 1    
    71   36   98 1    
    72   36   99 1    
    73   36  100 1    
    74   37   38 am   BACKBONE|DICT|INTERRES
    75   37  101 1    
    76   38   39 2    
    77   38   40 1    
    78   40   41 1    
    79   40   42 1    
    80   40  102 1    
    81   41  103 1    
    82   41  104 1    
    83   41  105 1    
    84   42   43 am   BACKBONE|DICT|INTERRES
    85   42  106 1    
    86   43   44 2    
    87   43   45 1    
    88   45   46 1    
    89   45   49 1    
    90   45  107 1    
    91   46   47 1    
    92   46  108 1    
    93   46  109 1    
    94   47   48 1    
    95   48  110 1    
    96   48  111 1    
    97   49   50 am   BACKBONE|DICT|INTERRES
    98   49  112 1    
    99   50   51 2    
   100   50   52 1    
   101   52   53 1    
   102   52   54 1    
   103   52  113 1    
   104   53  114 1    
   105   53  115 1    
   106   53  116 1    
   107   54   55 am   BACKBONE|DICT|INTERRES
   108   54  117 1    
   109   55   56 2    
   110   55   57 1    
   111   57   58 1    
   112   57   59 1    
   113   57  118 1    
   114   58  119 1    
   115   58  120 1    
   116   58  121 1    
   117   59   60 am   BACKBONE|DICT|INTERRES
   118   59  122 1    
   119   60   61 2    
   120   60   62 1    
   121   62   63 1    
   122   62   64 1    
   123   62  123 1    
   124   63  124 1    
   125   63  125 1    
   126   63  126 1    
   127   64   65 am   BACKBONE|DICT|INTERRES
   128   64  127 1    
   129   65   66 2    
@<TRIPOS>SUBSTRUCTURE
     1 UNK         1 GROUP             0       ****    0 ROOT    
