@<TRIPOS>MOLECULE
3R134
127   129    1
SMALL
USER_CHARGES


@<TRIPOS>ATOM
      1 CA         38.5352  -45.3978  -55.2545 C.3       0 UNK        -0.1968 
      2 C          37.1582  -45.9854  -54.9846 C.2       0 UNK         0.4852 
      3 O          36.8819  -47.1145  -55.3953 O.2       0 UNK        -0.5359 
      4 N          36.2928  -45.2382  -54.2864 N.am      1 UNK        -0.4300 
      5 CA         34.9157  -45.6129  -53.9401 C.3       1 UNK         0.0863 
      6 C6         34.0385  -44.3652  -53.6613 C.3       11 UNK        -0.0953 
      7 S7         33.7461  -43.3786  -55.1665 S.3       11 UNK        -0.2369 
      8 C8         32.4592  -42.2175  -54.6018 C.3       11 UNK         0.0226 
      9 C9         31.1433  -42.9161  -54.2840 C.ar      11 UNK        -0.0699 
     10 C10        30.8135  -43.2229  -52.9600 C.ar      11 UNK        -0.0804 
     11 C11        29.6204  -43.8853  -52.6577 C.ar      11 UNK        -0.0871 
     12 C12        28.7310  -44.1956  -53.6884 C.ar      11 UNK        -0.1008 
     13 C13        29.0564  -43.9149  -55.0175 C.ar      11 UNK        -0.0735 
     14 C14        30.2617  -43.2685  -55.3111 C.ar      11 UNK        -0.0945 
     15 C15        28.1265  -44.3774  -56.1267 C.3       11 UNK         0.0169 
     16 S16        26.9887  -43.0667  -56.6697 S.3       11 UNK        -0.2669 
     17 C17        27.8505  -42.4442  -58.1542 C.3       11 UNK        -0.0850 
     18 CA         27.2806  -43.0261  -59.4772 C.3       10 UNK         0.0855 
     19 C          28.0097  -42.3940  -60.7001 C.2       10 UNK         0.5543 
     20 N          28.7885  -43.1424  -61.4716 N.am      10 UNK        -0.7343 
     21 O          27.8641  -41.2000  -60.9493 O.2       10 UNK        -0.5027 
     22 N          27.2402  -44.5006  -59.4562 N.am      10 UNK        -0.4495 
     23 C          26.5813  -45.2753  -60.3272 C.2       10 UNK         0.4903 
     24 O          25.9351  -44.8474  -61.2836 O.2       10 UNK        -0.4860 
     25 CA         26.6533  -46.7922  -60.0818 C.3       9 UNK         0.0227 
     26 CB         27.9644  -47.3708  -60.6394 C.3       9 UNK        -0.1964 
     27 N          26.5187  -47.1631  -58.6693 N.am      9 UNK        -0.4231 
     28 C          25.3910  -47.0532  -57.9501 C.2       9 UNK         0.5014 
     29 O          24.3463  -46.5701  -58.3910 O.2       9 UNK        -0.5270 
     30 CA         25.4392  -47.5846  -56.5009 C.3       8 UNK         0.0284 
     31 CB         24.0421  -47.9024  -55.9265 C.3       8 UNK        -0.1977 
     32 N          26.3480  -48.7258  -56.3239 N.am      8 UNK        -0.4342 
     33 C          26.2639  -49.9348  -56.9019 C.2       8 UNK         0.5039 
     34 O          25.3805  -50.2656  -57.6937 O.2       8 UNK        -0.5547 
     35 CA         27.3617  -50.9510  -56.5425 C.3       7 UNK         0.0281 
     36 CB         28.6076  -50.7279  -57.4148 C.3       7 UNK        -0.1963 
     37 N          27.7417  -50.9197  -55.1277 N.am      7 UNK        -0.4444 
     38 C          26.9481  -51.3006  -54.1154 C.2       7 UNK         0.5104 
     39 O          25.8059  -51.7366  -54.2619 O.2       7 UNK        -0.5100 
     40 CA         27.5260  -51.1712  -52.6970 C.3       6 UNK         0.0396 
     41 CB         28.4139  -52.3789  -52.3552 C.3       6 UNK        -0.1801 
     42 N          28.2923  -49.9337  -52.5451 N.am      6 UNK        -0.4747 
     43 C          27.7468  -48.7387  -52.2721 C.2       6 UNK         0.5012 
     44 O          26.5515  -48.5754  -52.0255 O.2       6 UNK        -0.5003 
     45 CA         28.6821  -47.5119  -52.2907 C.3       5 UNK         0.0782 
     46 C46        29.1148  -47.1284  -50.8530 C.3       11 UNK        -0.0868 
     47 S47        30.3089  -45.7490  -50.7455 S.3       11 UNK        -0.2515 
     48 C48        29.3201  -44.2920  -51.2222 C.3       11 UNK         0.0199 
     49 N          29.8139  -47.6789  -53.2085 N.am      5 UNK        -0.4607 
     50 C          29.6991  -47.7156  -54.5427 C.2       4 UNK         0.5031 
     51 O          28.6282  -47.6213  -55.1412 O.2       4 UNK        -0.5119 
     52 CA         30.9846  -47.9487  -55.3504 C.3       4 UNK         0.0263 
     53 CB         31.6646  -46.6101  -55.6656 C.3       4 UNK        -0.1967 
     54 N          31.9394  -48.8608  -54.7101 N.am      4 UNK        -0.4237 
     55 C          31.6763  -50.1322  -54.3696 C.2       3 UNK         0.4908 
     56 O          30.5613  -50.6447  -54.4763 O.2       3 UNK        -0.5102 
     57 CA         32.8366  -50.9865  -53.8337 C.3       3 UNK         0.0241 
     58 CB         33.2620  -52.0176  -54.8921 C.3       3 UNK        -0.1971 
     59 N          34.0058  -50.1893  -53.4491 N.am      3 UNK        -0.4139 
     60 C          34.2477  -49.7441  -52.2083 C.2       2 UNK         0.5016 
     61 O          33.5082  -49.9472  -51.2453 O.2       2 UNK        -0.5319 
     62 CA         35.5239  -48.9084  -52.0266 C.3       2 UNK         0.0286 
     63 CB         36.7888  -49.7632  -52.2159 C.3       2 UNK        -0.1963 
     64 N          35.5468  -47.7778  -52.9564 N.am      2 UNK        -0.4790 
     65 C          34.8632  -46.6396  -52.7834 C.2       1 UNK         0.5024 
     66 O          34.2132  -46.3964  -51.7659 O.2       1 UNK        -0.4888 
     67 H67        39.3056  -46.0316  -54.8163 H         1 UNK         0.0892 
     68 H68        38.7125  -45.3376  -56.3279 H         1 UNK         0.0892 
     69 H69        38.6407  -44.3967  -54.8369 H         1 UNK         0.0892 
     70 H70        36.5834  -44.3270  -53.9616 H         1 UNK         0.3107 
     71 H71        34.4861  -46.1241  -54.8036 H         1 UNK         0.0773 
     72 H72        34.4891  -43.7310  -52.8959 H         1 UNK         0.0680 
     73 H73        33.0672  -44.6700  -53.2728 H         1 UNK         0.0680 
     74 H74        32.2941  -41.4718  -55.3807 H         1 UNK         0.0650 
     75 H75        32.8252  -41.6716  -53.7308 H         1 UNK         0.0650 
     76 H76        31.5027  -42.9763  -52.1637 H         1 UNK         0.1397 
     77 H77        27.7941  -44.6848  -53.4661 H         1 UNK         0.1363 
     78 H78        30.5259  -43.0559  -56.3373 H         1 UNK         0.1355 
     79 H79        28.7097  -44.7624  -56.9636 H         1 UNK         0.0707 
     80 H80        27.5308  -45.2183  -55.7736 H         1 UNK         0.0707 
     81 H81        27.7539  -41.3566  -58.1516 H         1 UNK         0.1034 
     82 H82        28.9201  -42.6436  -58.0747 H         1 UNK         0.1034 
     83 H83        26.2427  -42.6958  -59.5526 H         1 UNK         0.0482 
     84 H84        28.9079  -44.1231  -61.2778 H         1 UNK         0.3460 
     85 H85        29.2529  -42.7221  -62.2612 H         1 UNK         0.3460 
     86 H86        27.7298  -44.9453  -58.6970 H         1 UNK         0.2989 
     87 H87        25.8258  -47.2530  -60.6255 H         1 UNK         0.0559 
     88 H88        28.8387  -46.9811  -60.1168 H         1 UNK         0.0848 
     89 H89        28.0801  -47.1253  -61.6962 H         1 UNK         0.0848 
     90 H90        27.9832  -48.4580  -60.5596 H         1 UNK         0.0848 
     91 H91        27.3212  -47.5837  -58.2249 H         1 UNK         0.3144 
     92 H92        25.8541  -46.7771  -55.8985 H         1 UNK         0.0727 
     93 H93        23.4102  -47.0135  -55.9181 H         1 UNK         0.0790 
     94 H94        24.1094  -48.2606  -54.8991 H         1 UNK         0.0790 
     95 H95        23.5261  -48.6625  -56.5139 H         1 UNK         0.0790 
     96 H96        27.1617  -48.5315  -55.7405 H         1 UNK         0.3215 
     97 H97        26.9715  -51.9481  -56.7579 H         1 UNK         0.0863 
     98 H98        29.3810  -51.4658  -57.1999 H         1 UNK         0.0808 
     99 H99        29.0365  -49.7386  -57.2598 H         1 UNK         0.0808 
    100 H100       28.3616  -50.8140  -58.4741 H         1 UNK         0.0808 
    101 H101       28.6957  -50.6420  -54.9117 H         1 UNK         0.3118 
    102 H102       26.6914  -51.1640  -51.9924 H         1 UNK         0.0546 
    103 H103       29.2660  -52.4663  -53.0297 H         1 UNK         0.0828 
    104 H104       27.8478  -53.3085  -52.4272 H         1 UNK         0.0828 
    105 H105       28.7980  -52.3127  -51.3373 H         1 UNK         0.0828 
    106 H106       29.2728  -49.9751  -52.7924 H         1 UNK         0.3005 
    107 H107       28.0717  -46.6982  -52.6774 H         1 UNK         0.1257 
    108 H108       29.5777  -47.9864  -50.3614 H         1 UNK         0.0775 
    109 H109       28.2420  -46.8737  -50.2483 H         1 UNK         0.0775 
    110 H110       28.2564  -44.4899  -51.0820 H         1 UNK         0.0840 
    111 H111       29.5661  -43.4652  -50.5542 H         1 UNK         0.0840 
    112 H112       30.7294  -47.7451  -52.7888 H         1 UNK         0.2987 
    113 H113       30.6965  -48.4056  -56.2982 H         1 UNK         0.0785 
    114 H114       32.5707  -46.7449  -56.2559 H         1 UNK         0.0798 
    115 H115       31.9217  -46.0684  -54.7562 H         1 UNK         0.0798 
    116 H116       31.0002  -45.9673  -56.2438 H         1 UNK         0.0798 
    117 H117       32.8794  -48.5213  -54.5815 H         1 UNK         0.3079 
    118 H118       32.4606  -51.5321  -52.9654 H         1 UNK         0.0794 
    119 H119       32.4215  -52.6504  -55.1814 H         1 UNK         0.0786 
    120 H120       34.0436  -52.6756  -54.5119 H         1 UNK         0.0786 
    121 H121       33.6363  -51.5392  -55.7981 H         1 UNK         0.0786 
    122 H122       34.6793  -49.9867  -54.1741 H         1 UNK         0.3032 
    123 H123       35.5275  -48.5267  -51.0026 H         1 UNK         0.1094 
    124 H124       37.6881  -49.1877  -51.9956 H         1 UNK         0.0794 
    125 H125       36.7830  -50.6220  -51.5431 H         1 UNK         0.0794 
    126 H126       36.8803  -50.1452  -53.2332 H         1 UNK         0.0794 
    127 H127       36.0885  -47.8714  -53.8127 H         1 UNK         0.3016 
@<TRIPOS>BOND
     1    1    2 1    
     2    1   67 1    
     3    1   68 1    
     4    1   69 1    
     5    2    3 2    
     6    2    4 am   BACKBONE|DICT|INTERRES
     7    4    5 1    
     8    4   70 1    
     9    5    6 1    
    10    5   65 1    
    11    5   71 1    
    12    6    7 1    
    13    6   72 1    
    14    6   73 1    
    15    7    8 1    
    16    8    9 1    
    17    8   74 1    
    18    8   75 1    
    19    9   10 ar   
    20    9   14 ar   
    21   10   11 ar   
    22   10   76 1    
    23   11   12 ar   
    24   11   48 1    
    25   12   13 ar   
    26   12   77 1    
    27   13   14 ar   
    28   13   15 1    
    29   14   78 1    
    30   15   16 1    
    31   15   79 1    
    32   15   80 1    
    33   16   17 1    
    34   17   18 1    
    35   17   81 1    
    36   17   82 1    
    37   18   19 1    
    38   18   22 1    
    39   18   83 1    
    40   19   20 am   BACKBONE|DICT|INTERRES
    41   19   21 2    
    42   20   84 1    
    43   20   85 1    
    44   22   23 am   BACKBONE|DICT|INTERRES
    45   22   86 1    
    46   23   24 2    
    47   23   25 1    
    48   25   26 1    
    49   25   27 1    
    50   25   87 1    
    51   26   88 1    
    52   26   89 1    
    53   26   90 1    
    54   27   28 am   BACKBONE|DICT|INTERRES
    55   27   91 1    
    56   28   29 2    
    57   28   30 1    
    58   30   31 1    
    59   30   32 1    
    60   30   92 1    
    61   31   93 1    
    62   31   94 1    
    63   31   95 1    
    64   32   33 am   BACKBONE|DICT|INTERRES
    65   32   96 1    
    66   33   34 2    
    67   33   35 1    
    68   35   36 1    
    69   35   37 1    
    70   35   97 1    
    71   36   98 1    
    72   36   99 1    
    73   36  100 1    
    74   37   38 am   BACKBONE|DICT|INTERRES
    75   37  101 1    
    76   38   39 2    
    77   38   40 1    
    78   40   41 1    
    79   40   42 1    
    80   40  102 1    
    81   41  103 1    
    82   41  104 1    
    83   41  105 1    
    84   42   43 am   BACKBONE|DICT|INTERRES
    85   42  106 1    
    86   43   44 2    
    87   43   45 1    
    88   45   46 1    
    89   45   49 1    
    90   45  107 1    
    91   46   47 1    
    92   46  108 1    
    93   46  109 1    
    94   47   48 1    
    95   48  110 1    
    96   48  111 1    
    97   49   50 am   BACKBONE|DICT|INTERRES
    98   49  112 1    
    99   50   51 2    
   100   50   52 1    
   101   52   53 1    
   102   52   54 1    
   103   52  113 1    
   104   53  114 1    
   105   53  115 1    
   106   53  116 1    
   107   54   55 am   BACKBONE|DICT|INTERRES
   108   54  117 1    
   109   55   56 2    
   110   55   57 1    
   111   57   58 1    
   112   57   59 1    
   113   57  118 1    
   114   58  119 1    
   115   58  120 1    
   116   58  121 1    
   117   59   60 am   BACKBONE|DICT|INTERRES
   118   59  122 1    
   119   60   61 2    
   120   60   62 1    
   121   62   63 1    
   122   62   64 1    
   123   62  123 1    
   124   63  124 1    
   125   63  125 1    
   126   63  126 1    
   127   64   65 am   BACKBONE|DICT|INTERRES
   128   64  127 1    
   129   65   66 2    
@<TRIPOS>SUBSTRUCTURE
     1 UNK         1 GROUP             0       ****    0 ROOT    
