@<TRIPOS>MOLECULE
3R134
127   129    1
SMALL
USER_CHARGES


@<TRIPOS>ATOM
      1 CA         38.1304  -43.8558  -51.1621 C.3       0 UNK        -0.1968 
      2 C          37.3899  -44.8747  -52.0154 C.2       0 UNK         0.4852 
      3 O          37.8779  -45.9909  -52.1985 O.2       0 UNK        -0.5359 
      4 N          36.2040  -44.5124  -52.5226 N.am      1 UNK        -0.4300 
      5 CA         35.3405  -45.3310  -53.3881 C.3       1 UNK         0.0863 
      6 C6         34.4721  -44.4196  -54.3066 C.3       11 UNK        -0.0953 
      7 S7         34.3876  -44.9926  -56.0380 S.3       11 UNK        -0.2369 
      8 C8         32.7587  -45.7976  -56.1362 C.3       11 UNK         0.0226 
      9 C9         31.6007  -44.8389  -55.9059 C.ar      11 UNK        -0.0699 
     10 C10        30.9397  -44.8425  -54.6778 C.ar      11 UNK        -0.0804 
     11 C11        29.8258  -44.0314  -54.4600 C.ar      11 UNK        -0.0871 
     12 C12        29.3908  -43.1783  -55.4790 C.ar      11 UNK        -0.1008 
     13 C13        30.0612  -43.1422  -56.7068 C.ar      11 UNK        -0.0735 
     14 C14        31.1616  -43.9812  -56.9181 C.ar      11 UNK        -0.0945 
     15 C15        29.6059  -42.1933  -57.8043 C.3       11 UNK         0.0169 
     16 S16        28.4554  -43.0166  -58.9476 S.3       11 UNK        -0.2669 
     17 C17        26.9156  -42.0650  -58.7100 C.3       11 UNK        -0.0850 
     18 CA         26.0032  -42.6063  -57.5773 C.3       10 UNK         0.0855 
     19 C          24.7448  -41.7007  -57.4289 C.2       10 UNK         0.5543 
     20 N          23.5470  -42.1640  -57.7650 N.am      10 UNK        -0.7343 
     21 O          24.8627  -40.5547  -57.0025 O.2       10 UNK        -0.5027 
     22 N          25.7308  -44.0460  -57.7279 N.am      10 UNK        -0.4495 
     23 C          25.1737  -44.8362  -56.8028 C.2       10 UNK         0.4903 
     24 O          24.7989  -44.4397  -55.6993 O.2       10 UNK        -0.4860 
     25 CA         25.0076  -46.3247  -57.1568 C.3       9 UNK         0.0227 
     26 CB         23.8226  -46.5527  -58.1161 C.3       9 UNK        -0.1964 
     27 N          26.2402  -46.9658  -57.6355 N.am      9 UNK        -0.4231 
     28 C          26.9053  -46.7628  -58.7830 C.2       9 UNK         0.5014 
     29 O          26.5303  -45.9904  -59.6666 O.2       9 UNK        -0.5270 
     30 CA         28.2218  -47.5340  -58.9806 C.3       8 UNK         0.0284 
     31 CB         29.4104  -46.7169  -58.4490 C.3       8 UNK        -0.1977 
     32 N          28.2369  -48.8589  -58.3576 N.am      8 UNK        -0.4342 
     33 C          27.5344  -49.9165  -58.7874 C.2       8 UNK         0.5039 
     34 O          26.7412  -49.8783  -59.7287 O.2       8 UNK        -0.5547 
     35 CA         27.7684  -51.2463  -58.0552 C.3       7 UNK         0.0281 
     36 CB         29.0934  -51.8870  -58.5026 C.3       7 UNK        -0.1963 
     37 N          27.7848  -51.0558  -56.6055 N.am      7 UNK        -0.4444 
     38 C          26.7191  -51.2060  -55.8074 C.2       7 UNK         0.5104 
     39 O          25.6178  -51.5947  -56.1981 O.2       7 UNK        -0.5100 
     40 CA         26.9035  -50.8615  -54.3163 C.3       6 UNK         0.0396 
     41 CB         27.2160  -52.1307  -53.5088 C.3       6 UNK        -0.1801 
     42 N          27.9447  -49.8601  -54.0648 N.am      6 UNK        -0.4747 
     43 C          27.8874  -48.5853  -54.4845 C.2       6 UNK         0.5012 
     44 O          26.9394  -48.1245  -55.1180 O.2       6 UNK        -0.5003 
     45 CA         29.1206  -47.6940  -54.2175 C.3       5 UNK         0.0782 
     46 C46        28.9709  -46.9189  -52.8814 C.3       11 UNK        -0.0868 
     47 S47        27.8998  -45.4460  -53.0461 S.3       11 UNK        -0.2515 
     48 C48        29.1040  -44.0795  -53.1212 C.3       11 UNK         0.0199 
     49 N          30.3866  -48.4382  -54.2829 N.am      5 UNK        -0.4607 
     50 C          30.7965  -49.1784  -55.3249 C.2       4 UNK         0.5031 
     51 O          30.1915  -49.2298  -56.3953 O.2       4 UNK        -0.5119 
     52 CA         32.0358  -50.0720  -55.1391 C.3       4 UNK         0.0263 
     53 CB         33.2487  -49.5090  -55.8965 C.3       4 UNK        -0.1967 
     54 N          32.4141  -50.3229  -53.7466 N.am      4 UNK        -0.4237 
     55 C          31.6694  -50.9137  -52.8040 C.2       3 UNK         0.4908 
     56 O          30.5186  -51.3092  -52.9943 O.2       3 UNK        -0.5102 
     57 CA         32.2909  -51.0483  -51.4006 C.3       3 UNK         0.0241 
     58 CB         33.1745  -52.3075  -51.3076 C.3       3 UNK        -0.1971 
     59 N          33.0033  -49.8497  -50.9215 N.am      3 UNK        -0.4139 
     60 C          34.1166  -49.2789  -51.4069 C.2       2 UNK         0.5016 
     61 O          34.7549  -49.7113  -52.3705 O.2       2 UNK        -0.5319 
     62 CA         34.5969  -48.0074  -50.6901 C.3       2 UNK         0.0286 
     63 CB         35.6355  -48.3576  -49.6127 C.3       2 UNK        -0.1963 
     64 N          35.1838  -47.0384  -51.6180 N.am      2 UNK        -0.4790 
     65 C          34.5208  -46.3630  -52.5671 C.2       1 UNK         0.5024 
     66 O          33.3134  -46.5089  -52.7653 O.2       1 UNK        -0.4888 
     67 H67        39.1074  -43.6438  -51.5955 H         1 UNK         0.0892 
     68 H68        38.2810  -44.2473  -50.1565 H         1 UNK         0.0892 
     69 H69        37.5843  -42.9160  -51.0822 H         1 UNK         0.0892 
     70 H70        35.8394  -43.5977  -52.2963 H         1 UNK         0.3107 
     71 H71        36.0012  -45.9210  -54.0273 H         1 UNK         0.0773 
     72 H72        34.9169  -43.4251  -54.3711 H         1 UNK         0.0680 
     73 H73        33.4784  -44.2390  -53.8982 H         1 UNK         0.0680 
     74 H74        32.6524  -46.2632  -57.1170 H         1 UNK         0.0650 
     75 H75        32.7210  -46.6080  -55.4099 H         1 UNK         0.0650 
     76 H76        31.2872  -45.4974  -53.8936 H         1 UNK         0.1397 
     77 H77        28.5339  -42.5400  -55.3149 H         1 UNK         0.1363 
     78 H78        31.6722  -43.9716  -57.8713 H         1 UNK         0.1355 
     79 H79        30.4696  -41.8398  -58.3695 H         1 UNK         0.0707 
     80 H80        29.1497  -41.3051  -57.3653 H         1 UNK         0.0707 
     81 H81        26.3747  -42.0830  -59.6582 H         1 UNK         0.1034 
     82 H82        27.1677  -41.0168  -58.5381 H         1 UNK         0.1034 
     83 H83        26.5528  -42.4992  -56.6412 H         1 UNK         0.0482 
     84 H84        23.4453  -43.1035  -58.1131 H         1 UNK         0.3460 
     85 H85        22.7390  -41.5702  -57.6635 H         1 UNK         0.3460 
     86 H86        26.0361  -44.4793  -58.5953 H         1 UNK         0.2989 
     87 H87        24.7649  -46.8385  -56.2254 H         1 UNK         0.0559 
     88 H88        23.6736  -47.6143  -58.3136 H         1 UNK         0.0848 
     89 H89        23.9630  -46.0512  -59.0738 H         1 UNK         0.0848 
     90 H90        22.8967  -46.1702  -57.6848 H         1 UNK         0.0848 
     91 H91        26.6648  -47.5815  -56.9466 H         1 UNK         0.3144 
     92 H92        28.3623  -47.6728  -60.0547 H         1 UNK         0.0727 
     93 H93        30.3532  -47.2484  -58.5790 H         1 UNK         0.0790 
     94 H94        29.3013  -46.4829  -57.3897 H         1 UNK         0.0790 
     95 H95        29.4997  -45.7708  -58.9825 H         1 UNK         0.0790 
     96 H96        28.9097  -48.9943  -57.6036 H         1 UNK         0.3215 
     97 H97        26.9596  -51.9270  -58.3309 H         1 UNK         0.0863 
     98 H98        29.2410  -52.8585  -58.0307 H         1 UNK         0.0808 
     99 H99        29.9539  -51.2629  -58.2583 H         1 UNK         0.0808 
    100 H100       29.1030  -52.0468  -59.5816 H         1 UNK         0.0808 
    101 H101       28.6380  -50.6868  -56.2049 H         1 UNK         0.3118 
    102 H102       25.9573  -50.4532  -53.9553 H         1 UNK         0.0546 
    103 H103       26.4345  -52.8802  -53.6408 H         1 UNK         0.0828 
    104 H104       27.2828  -51.9175  -52.4419 H         1 UNK         0.0828 
    105 H105       28.1584  -52.5842  -53.8191 H         1 UNK         0.0828 
    106 H106       28.7804  -50.1848  -53.5891 H         1 UNK         0.3005 
    107 H107       29.1579  -46.9716  -55.0351 H         1 UNK         0.1257 
    108 H108       29.9425  -46.6005  -52.5034 H         1 UNK         0.0775 
    109 H109       28.5646  -47.5604  -52.0967 H         1 UNK         0.0775 
    110 H110       28.5750  -43.1406  -52.9510 H         1 UNK         0.0840 
    111 H111       29.8224  -44.1715  -52.3050 H         1 UNK         0.0840 
    112 H112       30.9491  -48.4502  -53.4451 H         1 UNK         0.2987 
    113 H113       31.7819  -51.0369  -55.5826 H         1 UNK         0.0785 
    114 H114       33.6868  -48.6538  -55.3824 H         1 UNK         0.0798 
    115 H115       32.9787  -49.1904  -56.9046 H         1 UNK         0.0798 
    116 H116       34.0294  -50.2633  -55.9965 H         1 UNK         0.0798 
    117 H117       33.3527  -50.0404  -53.4668 H         1 UNK         0.3079 
    118 H118       31.4573  -51.1875  -50.7099 H         1 UNK         0.0794 
    119 H119       34.0304  -52.2595  -51.9815 H         1 UNK         0.0786 
    120 H120       32.6064  -53.2007  -51.5710 H         1 UNK         0.0786 
    121 H121       33.5531  -52.4515  -50.2957 H         1 UNK         0.0786 
    122 H122       32.5614  -49.3956  -50.1335 H         1 UNK         0.3032 
    123 H123       33.7400  -47.5292  -50.2100 H         1 UNK         0.1094 
    124 H124       36.5239  -48.8197  -50.0458 H         1 UNK         0.0794 
    125 H125       35.9528  -47.4710  -49.0633 H         1 UNK         0.0794 
    126 H126       35.2253  -49.0590  -48.8847 H         1 UNK         0.0794 
    127 H127       36.1871  -46.8952  -51.5655 H         1 UNK         0.3016 
@<TRIPOS>BOND
     1    1    2 1    
     2    1   67 1    
     3    1   68 1    
     4    1   69 1    
     5    2    3 2    
     6    2    4 am   BACKBONE|DICT|INTERRES
     7    4    5 1    
     8    4   70 1    
     9    5    6 1    
    10    5   65 1    
    11    5   71 1    
    12    6    7 1    
    13    6   72 1    
    14    6   73 1    
    15    7    8 1    
    16    8    9 1    
    17    8   74 1    
    18    8   75 1    
    19    9   10 ar   
    20    9   14 ar   
    21   10   11 ar   
    22   10   76 1    
    23   11   12 ar   
    24   11   48 1    
    25   12   13 ar   
    26   12   77 1    
    27   13   14 ar   
    28   13   15 1    
    29   14   78 1    
    30   15   16 1    
    31   15   79 1    
    32   15   80 1    
    33   16   17 1    
    34   17   18 1    
    35   17   81 1    
    36   17   82 1    
    37   18   19 1    
    38   18   22 1    
    39   18   83 1    
    40   19   20 am   BACKBONE|DICT|INTERRES
    41   19   21 2    
    42   20   84 1    
    43   20   85 1    
    44   22   23 am   BACKBONE|DICT|INTERRES
    45   22   86 1    
    46   23   24 2    
    47   23   25 1    
    48   25   26 1    
    49   25   27 1    
    50   25   87 1    
    51   26   88 1    
    52   26   89 1    
    53   26   90 1    
    54   27   28 am   BACKBONE|DICT|INTERRES
    55   27   91 1    
    56   28   29 2    
    57   28   30 1    
    58   30   31 1    
    59   30   32 1    
    60   30   92 1    
    61   31   93 1    
    62   31   94 1    
    63   31   95 1    
    64   32   33 am   BACKBONE|DICT|INTERRES
    65   32   96 1    
    66   33   34 2    
    67   33   35 1    
    68   35   36 1    
    69   35   37 1    
    70   35   97 1    
    71   36   98 1    
    72   36   99 1    
    73   36  100 1    
    74   37   38 am   BACKBONE|DICT|INTERRES
    75   37  101 1    
    76   38   39 2    
    77   38   40 1    
    78   40   41 1    
    79   40   42 1    
    80   40  102 1    
    81   41  103 1    
    82   41  104 1    
    83   41  105 1    
    84   42   43 am   BACKBONE|DICT|INTERRES
    85   42  106 1    
    86   43   44 2    
    87   43   45 1    
    88   45   46 1    
    89   45   49 1    
    90   45  107 1    
    91   46   47 1    
    92   46  108 1    
    93   46  109 1    
    94   47   48 1    
    95   48  110 1    
    96   48  111 1    
    97   49   50 am   BACKBONE|DICT|INTERRES
    98   49  112 1    
    99   50   51 2    
   100   50   52 1    
   101   52   53 1    
   102   52   54 1    
   103   52  113 1    
   104   53  114 1    
   105   53  115 1    
   106   53  116 1    
   107   54   55 am   BACKBONE|DICT|INTERRES
   108   54  117 1    
   109   55   56 2    
   110   55   57 1    
   111   57   58 1    
   112   57   59 1    
   113   57  118 1    
   114   58  119 1    
   115   58  120 1    
   116   58  121 1    
   117   59   60 am   BACKBONE|DICT|INTERRES
   118   59  122 1    
   119   60   61 2    
   120   60   62 1    
   121   62   63 1    
   122   62   64 1    
   123   62  123 1    
   124   63  124 1    
   125   63  125 1    
   126   63  126 1    
   127   64   65 am   BACKBONE|DICT|INTERRES
   128   64  127 1    
   129   65   66 2    
@<TRIPOS>SUBSTRUCTURE
     1 UNK         1 GROUP             0       ****    0 ROOT    
