@<TRIPOS>MOLECULE
3R134
127   129    1
SMALL
USER_CHARGES


@<TRIPOS>ATOM
      1 CA         30.2978  -47.3648  -49.2728 C.3       0 UNK        -0.1968 
      2 C          31.6809  -46.7428  -49.3969 C.2       0 UNK         0.4852 
      3 O          32.6106  -47.1818  -48.7188 O.2       0 UNK        -0.5359 
      4 N          31.8187  -45.7224  -50.2546 N.am      1 UNK        -0.4300 
      5 CA         33.0724  -45.0172  -50.5540 C.3       1 UNK         0.0863 
      6 C6         32.8156  -43.7263  -51.3738 C.3       11 UNK        -0.0953 
      7 S7         31.8439  -43.9982  -52.8995 S.3       11 UNK        -0.2369 
      8 C8         32.3125  -42.5321  -53.8649 C.3       11 UNK         0.0226 
      9 C9         31.9633  -42.7143  -55.3323 C.ar      11 UNK        -0.0699 
     10 C10        32.7886  -43.4998  -56.1409 C.ar      11 UNK        -0.0804 
     11 C11        32.4933  -43.6778  -57.4941 C.ar      11 UNK        -0.0871 
     12 C12        31.3704  -43.0523  -58.0415 C.ar      11 UNK        -0.1008 
     13 C13        30.5362  -42.2641  -57.2441 C.ar      11 UNK        -0.0735 
     14 C14        30.8357  -42.0988  -55.8867 C.ar      11 UNK        -0.0945 
     15 C15        29.3300  -41.5779  -57.8685 C.3       11 UNK         0.0169 
     16 S16        27.9149  -42.7109  -58.0480 S.3       11 UNK        -0.2669 
     17 C17        27.2757  -42.7739  -56.3399 C.3       11 UNK        -0.0850 
     18 CA         27.2971  -44.2027  -55.7168 C.3       10 UNK         0.0855 
     19 C          26.9564  -44.1743  -54.1919 C.2       10 UNK         0.5543 
     20 N          26.3733  -45.2211  -53.6211 N.am      10 UNK        -0.7343 
     21 O          27.2400  -43.1968  -53.5036 O.2       10 UNK        -0.5027 
     22 N          26.5217  -45.1908  -56.4982 N.am      10 UNK        -0.4495 
     23 C          25.1976  -45.1444  -56.7085 C.2       10 UNK         0.4903 
     24 O          24.4781  -44.2436  -56.2737 O.2       10 UNK        -0.4860 
     25 CA         24.5141  -46.2808  -57.4962 C.3       9 UNK         0.0227 
     26 CB         23.7525  -45.7363  -58.7232 C.3       9 UNK        -0.1964 
     27 N          25.3530  -47.4293  -57.8605 N.am      9 UNK        -0.4231 
     28 C          26.3346  -47.5142  -58.7681 C.2       9 UNK         0.5014 
     29 O          26.7438  -46.5554  -59.4237 O.2       9 UNK        -0.5270 
     30 CA         26.9408  -48.9208  -58.9908 C.3       8 UNK         0.0284 
     31 CB         28.1790  -48.8930  -59.9059 C.3       8 UNK        -0.1977 
     32 N          27.2864  -49.6035  -57.7382 N.am      8 UNK        -0.4342 
     33 C          26.4164  -50.1597  -56.8834 C.2       8 UNK         0.5039 
     34 O          25.2047  -50.2223  -57.0956 O.2       8 UNK        -0.5547 
     35 CA         26.9697  -50.6441  -55.5325 C.3       7 UNK         0.0281 
     36 CB         27.5548  -52.0598  -55.6514 C.3       7 UNK        -0.1963 
     37 N          27.9692  -49.7267  -54.9768 N.am      7 UNK        -0.4444 
     38 C          27.7186  -48.4537  -54.6302 C.2       7 UNK         0.5104 
     39 O          26.5993  -47.9398  -54.6557 O.2       7 UNK        -0.5100 
     40 CA         28.9276  -47.5908  -54.2357 C.3       6 UNK         0.0396 
     41 CB         29.3360  -47.8434  -52.7772 C.3       6 UNK        -0.1801 
     42 N          30.0711  -47.8048  -55.1181 N.am      6 UNK        -0.4747 
     43 C          30.1077  -47.5115  -56.4256 C.2       6 UNK         0.5012 
     44 O          29.1953  -46.9375  -57.0189 O.2       6 UNK        -0.5003 
     45 CA         31.3400  -48.0101  -57.2087 C.3       5 UNK         0.0782 
     46 C46        32.5018  -46.9821  -57.2328 C.3       11 UNK        -0.0868 
     47 S47        32.5699  -46.1011  -58.8282 S.3       11 UNK        -0.2515 
     48 C48        33.3872  -44.5438  -58.3666 C.3       11 UNK         0.0199 
     49 N          31.7853  -49.3188  -56.7241 N.am      5 UNK        -0.4607 
     50 C          31.1607  -50.4702  -56.9967 C.2       4 UNK         0.5031 
     51 O          30.1341  -50.5443  -57.6712 O.2       4 UNK        -0.5119 
     52 CA         31.7759  -51.7503  -56.4079 C.3       4 UNK         0.0263 
     53 CB         32.8733  -52.2958  -57.3353 C.3       4 UNK        -0.1967 
     54 N          32.3204  -51.5601  -55.0604 N.am      4 UNK        -0.4237 
     55 C          31.5653  -51.3280  -53.9787 C.2       3 UNK         0.4908 
     56 O          30.3377  -51.2339  -54.0074 O.2       3 UNK        -0.5102 
     57 CA         32.3057  -51.1346  -52.6432 C.3       3 UNK         0.0241 
     58 CB         32.8274  -52.4797  -52.1109 C.3       3 UNK        -0.1971 
     59 N          33.3974  -50.1477  -52.6520 N.am      3 UNK        -0.4139 
     60 C          33.3078  -48.8981  -53.1275 C.2       2 UNK         0.5016 
     61 O          32.3708  -48.4835  -53.8082 O.2       2 UNK        -0.5319 
     62 CA         34.3977  -47.9002  -52.7386 C.3       2 UNK         0.0286 
     63 CB         35.1828  -47.4085  -53.9674 C.3       2 UNK        -0.1963 
     64 N          33.6728  -46.7958  -52.1248 N.am      2 UNK        -0.4790 
     65 C          34.1300  -45.9336  -51.2130 C.2       1 UNK         0.5024 
     66 O          35.3077  -45.8711  -50.8574 O.2       1 UNK        -0.4888 
     67 H67        30.3019  -48.3730  -49.6865 H         1 UNK         0.0892 
     68 H68        29.5404  -46.7827  -49.7976 H         1 UNK         0.0892 
     69 H69        30.0063  -47.4272  -48.2246 H         1 UNK         0.0892 
     70 H70        31.0170  -45.3977  -50.7765 H         1 UNK         0.3107 
     71 H71        33.4943  -44.7092  -49.5948 H         1 UNK         0.0773 
     72 H72        32.2706  -43.0080  -50.7593 H         1 UNK         0.0680 
     73 H73        33.7630  -43.2433  -51.6205 H         1 UNK         0.0680 
     74 H74        31.8148  -41.6537  -53.4513 H         1 UNK         0.0650 
     75 H75        33.3850  -42.3545  -53.7736 H         1 UNK         0.0650 
     76 H76        33.6564  -43.9800  -55.7092 H         1 UNK         0.1397 
     77 H77        31.1389  -43.1885  -59.0893 H         1 UNK         0.1363 
     78 H78        30.1976  -41.4878  -55.2633 H         1 UNK         0.1355 
     79 H79        29.6015  -41.2038  -58.8569 H         1 UNK         0.0707 
     80 H80        29.0357  -40.7019  -57.2883 H         1 UNK         0.0707 
     81 H81        26.2645  -42.3657  -56.3366 H         1 UNK         0.1034 
     82 H82        27.8611  -42.0878  -55.7270 H         1 UNK         0.1034 
     83 H83        28.3300  -44.5494  -55.7601 H         1 UNK         0.0482 
     84 H84        26.2020  -46.0701  -54.1491 H         1 UNK         0.3460 
     85 H85        26.1550  -45.1867  -52.6388 H         1 UNK         0.3460 
     86 H86        27.0576  -45.9542  -56.8918 H         1 UNK         0.2989 
     87 H87        23.7679  -46.6918  -56.8147 H         1 UNK         0.0559 
     88 H88        23.2187  -46.5298  -59.2460 H         1 UNK         0.0848 
     89 H89        24.4227  -45.2543  -59.4355 H         1 UNK         0.0848 
     90 H90        23.0121  -44.9923  -58.4262 H         1 UNK         0.0848 
     91 H91        25.1214  -48.2985  -57.3853 H         1 UNK         0.3144 
     92 H92        26.1760  -49.5134  -59.4970 H         1 UNK         0.0727 
     93 H93        28.5859  -49.8929  -60.0581 H         1 UNK         0.0790 
     94 H94        28.9692  -48.2679  -59.4907 H         1 UNK         0.0790 
     95 H95        27.9300  -48.4917  -60.8891 H         1 UNK         0.0790 
     96 H96        28.2722  -49.6279  -57.4993 H         1 UNK         0.3215 
     97 H97        26.1341  -50.6818  -54.8303 H         1 UNK         0.0863 
     98 H98        27.8797  -52.4367  -54.6815 H         1 UNK         0.0808 
     99 H99        28.4106  -52.0913  -56.3253 H         1 UNK         0.0808 
    100 H100       26.8105  -52.7575  -56.0373 H         1 UNK         0.0808 
    101 H101       28.9099  -50.0906  -54.8545 H         1 UNK         0.3118 
    102 H102       28.6458  -46.5434  -54.3284 H         1 UNK         0.0546 
    103 H103       28.4983  -47.6648  -52.1020 H         1 UNK         0.0828 
    104 H104       30.1453  -47.1787  -52.4772 H         1 UNK         0.0828 
    105 H105       29.6714  -48.8694  -52.6220 H         1 UNK         0.0828 
    106 H106       30.9009  -48.2195  -54.6914 H         1 UNK         0.3005 
    107 H107       30.9967  -48.1681  -58.2336 H         1 UNK         0.1257 
    108 H108       33.4663  -47.4774  -57.1100 H         1 UNK         0.0775 
    109 H109       32.4328  -46.2761  -56.4036 H         1 UNK         0.0775 
    110 H110       34.3320  -44.7649  -57.8672 H         1 UNK         0.0840 
    111 H111       33.6425  -43.9955  -59.2747 H         1 UNK         0.0840 
    112 H112       32.5721  -49.3261  -56.0912 H         1 UNK         0.2987 
    113 H113       30.9815  -52.4976  -56.3478 H         1 UNK         0.0785 
    114 H114       33.7124  -51.6043  -57.4221 H         1 UNK         0.0798 
    115 H115       32.4847  -52.4643  -58.3408 H         1 UNK         0.0798 
    116 H116       33.2590  -53.2498  -56.9753 H         1 UNK         0.0798 
    117 H117       33.3231  -51.6086  -54.9518 H         1 UNK         0.3079 
    118 H118       31.5651  -50.7643  -51.9313 H         1 UNK         0.0794 
    119 H119       33.6335  -52.8764  -52.7293 H         1 UNK         0.0786 
    120 H120       32.0332  -53.2277  -52.0907 H         1 UNK         0.0786 
    121 H121       33.2028  -52.3846  -51.0918 H         1 UNK         0.0786 
    122 H122       34.2170  -50.3955  -52.1163 H         1 UNK         0.3032 
    123 H123       35.0785  -48.3490  -52.0120 H         1 UNK         0.1094 
    124 H124       35.9414  -46.6784  -53.6854 H         1 UNK         0.0794 
    125 H125       35.6942  -48.2357  -54.4608 H         1 UNK         0.0794 
    126 H126       34.5280  -46.9399  -54.7034 H         1 UNK         0.0794 
    127 H127       32.6912  -46.7664  -52.3712 H         1 UNK         0.3016 
@<TRIPOS>BOND
     1    1    2 1    
     2    1   67 1    
     3    1   68 1    
     4    1   69 1    
     5    2    3 2    
     6    2    4 am   BACKBONE|DICT|INTERRES
     7    4    5 1    
     8    4   70 1    
     9    5    6 1    
    10    5   65 1    
    11    5   71 1    
    12    6    7 1    
    13    6   72 1    
    14    6   73 1    
    15    7    8 1    
    16    8    9 1    
    17    8   74 1    
    18    8   75 1    
    19    9   10 ar   
    20    9   14 ar   
    21   10   11 ar   
    22   10   76 1    
    23   11   12 ar   
    24   11   48 1    
    25   12   13 ar   
    26   12   77 1    
    27   13   14 ar   
    28   13   15 1    
    29   14   78 1    
    30   15   16 1    
    31   15   79 1    
    32   15   80 1    
    33   16   17 1    
    34   17   18 1    
    35   17   81 1    
    36   17   82 1    
    37   18   19 1    
    38   18   22 1    
    39   18   83 1    
    40   19   20 am   BACKBONE|DICT|INTERRES
    41   19   21 2    
    42   20   84 1    
    43   20   85 1    
    44   22   23 am   BACKBONE|DICT|INTERRES
    45   22   86 1    
    46   23   24 2    
    47   23   25 1    
    48   25   26 1    
    49   25   27 1    
    50   25   87 1    
    51   26   88 1    
    52   26   89 1    
    53   26   90 1    
    54   27   28 am   BACKBONE|DICT|INTERRES
    55   27   91 1    
    56   28   29 2    
    57   28   30 1    
    58   30   31 1    
    59   30   32 1    
    60   30   92 1    
    61   31   93 1    
    62   31   94 1    
    63   31   95 1    
    64   32   33 am   BACKBONE|DICT|INTERRES
    65   32   96 1    
    66   33   34 2    
    67   33   35 1    
    68   35   36 1    
    69   35   37 1    
    70   35   97 1    
    71   36   98 1    
    72   36   99 1    
    73   36  100 1    
    74   37   38 am   BACKBONE|DICT|INTERRES
    75   37  101 1    
    76   38   39 2    
    77   38   40 1    
    78   40   41 1    
    79   40   42 1    
    80   40  102 1    
    81   41  103 1    
    82   41  104 1    
    83   41  105 1    
    84   42   43 am   BACKBONE|DICT|INTERRES
    85   42  106 1    
    86   43   44 2    
    87   43   45 1    
    88   45   46 1    
    89   45   49 1    
    90   45  107 1    
    91   46   47 1    
    92   46  108 1    
    93   46  109 1    
    94   47   48 1    
    95   48  110 1    
    96   48  111 1    
    97   49   50 am   BACKBONE|DICT|INTERRES
    98   49  112 1    
    99   50   51 2    
   100   50   52 1    
   101   52   53 1    
   102   52   54 1    
   103   52  113 1    
   104   53  114 1    
   105   53  115 1    
   106   53  116 1    
   107   54   55 am   BACKBONE|DICT|INTERRES
   108   54  117 1    
   109   55   56 2    
   110   55   57 1    
   111   57   58 1    
   112   57   59 1    
   113   57  118 1    
   114   58  119 1    
   115   58  120 1    
   116   58  121 1    
   117   59   60 am   BACKBONE|DICT|INTERRES
   118   59  122 1    
   119   60   61 2    
   120   60   62 1    
   121   62   63 1    
   122   62   64 1    
   123   62  123 1    
   124   63  124 1    
   125   63  125 1    
   126   63  126 1    
   127   64   65 am   BACKBONE|DICT|INTERRES
   128   64  127 1    
   129   65   66 2    
@<TRIPOS>SUBSTRUCTURE
     1 UNK         1 GROUP             0       ****    0 ROOT    
