@<TRIPOS>MOLECULE
3R134
127   129    1
SMALL
USER_CHARGES


@<TRIPOS>ATOM
      1 CA         37.4249  -47.1747  -54.2896 C.3       0 UNK        -0.1968 
      2 C          35.9375  -46.9886  -54.0346 C.2       0 UNK         0.4852 
      3 O          35.1721  -47.9432  -54.1784 O.2       0 UNK        -0.5359 
      4 N          35.5256  -45.7737  -53.6423 N.am      1 UNK        -0.4300 
      5 CA         34.1353  -45.3650  -53.3879 C.3       1 UNK         0.0863 
      6 C6         34.0443  -43.8895  -52.9321 C.3       11 UNK        -0.0953 
      7 S7         34.5046  -42.7542  -54.2841 S.3       11 UNK        -0.2369 
      8 C8         32.9237  -41.9203  -54.6452 C.3       11 UNK         0.0226 
      9 C9         31.8382  -42.8851  -55.1061 C.ar      11 UNK        -0.0699 
     10 C10        30.8004  -43.2410  -54.2413 C.ar      11 UNK        -0.0804 
     11 C11        29.7950  -44.1217  -54.6520 C.ar      11 UNK        -0.0871 
     12 C12        29.8245  -44.6397  -55.9512 C.ar      11 UNK        -0.1008 
     13 C13        30.8446  -44.2701  -56.8356 C.ar      11 UNK        -0.0735 
     14 C14        31.8524  -43.4012  -56.4040 C.ar      11 UNK        -0.0945 
     15 C15        30.8719  -44.8021  -58.2603 C.3       11 UNK         0.0169 
     16 S16        30.2307  -43.5735  -59.4447 S.3       11 UNK        -0.2669 
     17 C17        28.4494  -43.9668  -59.4774 C.3       11 UNK        -0.0850 
     18 CA         27.6068  -43.1759  -58.4375 C.3       10 UNK         0.0855 
     19 C          27.1645  -41.7750  -58.9563 C.2       10 UNK         0.5543 
     20 N          25.8733  -41.4755  -59.0359 N.am      10 UNK        -0.7343 
     21 O          28.0030  -40.9390  -59.2823 O.2       10 UNK        -0.5027 
     22 N          26.5075  -44.0206  -57.9483 N.am      10 UNK        -0.4495 
     23 C          25.9577  -43.9651  -56.7296 C.2       10 UNK         0.4903 
     24 O          26.2580  -43.1324  -55.8746 O.2       10 UNK        -0.4860 
     25 CA         24.8945  -45.0337  -56.3995 C.3       9 UNK         0.0227 
     26 CB         23.4832  -44.4306  -56.4930 C.3       9 UNK        -0.1964 
     27 N          24.9619  -46.2414  -57.2376 N.am      9 UNK        -0.4231 
     28 C          25.9975  -47.0921  -57.2686 C.2       9 UNK         0.5014 
     29 O          27.0211  -46.9446  -56.6037 O.2       9 UNK        -0.5270 
     30 CA         25.9002  -48.2678  -58.2442 C.3       8 UNK         0.0284 
     31 CB         26.2133  -47.8053  -59.6813 C.3       8 UNK        -0.1977 
     32 N          26.8461  -49.3051  -57.8345 N.am      8 UNK        -0.4342 
     33 C          26.7912  -50.5895  -58.2080 C.2       8 UNK         0.5039 
     34 O          25.9245  -51.0488  -58.9535 O.2       8 UNK        -0.5547 
     35 CA         27.8731  -51.5283  -57.6554 C.3       7 UNK         0.0281 
     36 CB         29.1921  -51.3638  -58.4296 C.3       7 UNK        -0.1963 
     37 N          28.1011  -51.3041  -56.2278 N.am      7 UNK        -0.4444 
     38 C          27.3942  -51.8906  -55.2503 C.2       7 UNK         0.5104 
     39 O          26.4950  -52.7070  -55.4550 O.2       7 UNK        -0.5100 
     40 CA         27.7443  -51.5253  -53.7953 C.3       6 UNK         0.0396 
     41 CB         28.6064  -52.6259  -53.1569 C.3       6 UNK        -0.1801 
     42 N          28.4312  -50.2364  -53.6837 N.am      6 UNK        -0.4747 
     43 C          27.8043  -49.0513  -53.7596 C.2       6 UNK         0.5012 
     44 O          26.5795  -48.9439  -53.8343 O.2       6 UNK        -0.5003 
     45 CA         28.6674  -47.7683  -53.7635 C.3       5 UNK         0.0782 
     46 C46        28.5629  -47.0676  -52.3852 C.3       11 UNK        -0.0868 
     47 S47        29.3005  -45.4042  -52.2499 S.3       11 UNK        -0.2515 
     48 C48        28.6702  -44.4745  -53.6879 C.3       11 UNK         0.0199 
     49 N          30.0501  -47.9815  -54.2180 N.am      5 UNK        -0.4607 
     50 C          30.3718  -48.4504  -55.4349 C.2       4 UNK         0.5031 
     51 O          29.5389  -48.7348  -56.2960 O.2       4 UNK        -0.5119 
     52 CA         31.8536  -48.7238  -55.7388 C.3       4 UNK         0.0263 
     53 CB         32.5096  -47.4865  -56.3649 C.3       4 UNK        -0.1967 
     54 N          32.6386  -49.1826  -54.5887 N.am      4 UNK        -0.4237 
     55 C          32.3850  -50.2911  -53.8757 C.2       3 UNK         0.4908 
     56 O          31.4050  -51.0126  -54.0596 O.2       3 UNK        -0.5102 
     57 CA         33.3845  -50.6550  -52.7686 C.3       3 UNK         0.0241 
     58 CB         34.6350  -51.3257  -53.3610 C.3       3 UNK        -0.1971 
     59 N          33.7740  -49.4682  -52.0094 N.am      3 UNK        -0.4139 
     60 C          33.1471  -49.0418  -50.9041 C.2       2 UNK         0.5016 
     61 O          32.2561  -49.6724  -50.3335 O.2       2 UNK        -0.5319 
     62 CA         33.5680  -47.6706  -50.3392 C.3       2 UNK         0.0286 
     63 CB         34.6147  -47.8456  -49.2272 C.3       2 UNK        -0.1963 
     64 N          34.0853  -46.7351  -51.3446 N.am      2 UNK        -0.4790 
     65 C          33.3926  -46.2904  -52.4042 C.2       1 UNK         0.5024 
     66 O          32.2397  -46.6352  -52.6555 O.2       1 UNK        -0.4888 
     67 H67        37.5902  -47.4857  -55.3207 H         1 UNK         0.0892 
     68 H68        37.9875  -46.2575  -54.1167 H         1 UNK         0.0892 
     69 H69        37.8232  -47.9474  -53.6326 H         1 UNK         0.0892 
     70 H70        36.2075  -45.0338  -53.5532 H         1 UNK         0.3107 
     71 H71        33.6095  -45.4473  -54.3389 H         1 UNK         0.0773 
     72 H72        34.7038  -43.7067  -52.0820 H         1 UNK         0.0680 
     73 H73        33.0393  -43.6442  -52.5855 H         1 UNK         0.0680 
     74 H74        33.0922  -41.1719  -55.4208 H         1 UNK         0.0650 
     75 H75        32.6011  -41.3710  -53.7593 H         1 UNK         0.0650 
     76 H76        30.7738  -42.8367  -53.2386 H         1 UNK         0.1397 
     77 H77        29.0459  -45.3140  -56.2813 H         1 UNK         0.1363 
     78 H78        32.6449  -43.1180  -57.0833 H         1 UNK         0.1355 
     79 H79        31.9010  -45.0398  -58.5335 H         1 UNK         0.0707 
     80 H80        30.3168  -45.7384  -58.3365 H         1 UNK         0.0707 
     81 H81        28.3515  -45.0412  -59.3141 H         1 UNK         0.1034 
     82 H82        28.0737  -43.8026  -60.4892 H         1 UNK         0.1034 
     83 H83        28.2457  -42.9705  -57.5773 H         1 UNK         0.0482 
     84 H84        25.5956  -40.5650  -59.3672 H         1 UNK         0.3460 
     85 H85        25.1767  -42.1480  -58.7592 H         1 UNK         0.3460 
     86 H86        26.1643  -44.7190  -58.5892 H         1 UNK         0.2989 
     87 H87        25.0641  -45.3432  -55.3660 H         1 UNK         0.0559 
     88 H88        23.2382  -44.1277  -57.5117 H         1 UNK         0.0848 
     89 H89        23.3936  -43.5461  -55.8604 H         1 UNK         0.0848 
     90 H90        22.7247  -45.1395  -56.1605 H         1 UNK         0.0848 
     91 H91        24.1608  -46.4310  -57.8235 H         1 UNK         0.3144 
     92 H92        24.8863  -48.6709  -58.1963 H         1 UNK         0.0727 
     93 H93        27.2280  -47.4135  -59.7633 H         1 UNK         0.0790 
     94 H94        25.5299  -47.0191  -60.0039 H         1 UNK         0.0790 
     95 H95        26.1151  -48.6240  -60.3943 H         1 UNK         0.0790 
     96 H96        27.5804  -48.9825  -57.2074 H         1 UNK         0.3215 
     97 H97        27.5316  -52.5553  -57.8044 H         1 UNK         0.0863 
     98 H98        29.9597  -52.0401  -58.0532 H         1 UNK         0.0808 
     99 H99        29.5815  -50.3475  -58.3679 H         1 UNK         0.0808 
    100 H100       29.0501  -51.5909  -59.4870 H         1 UNK         0.0808 
    101 H101       28.7795  -50.5906  -55.9834 H         1 UNK         0.3118 
    102 H102       26.8090  -51.4709  -53.2339 H         1 UNK         0.0546 
    103 H103       29.5259  -52.7974  -53.7167 H         1 UNK         0.0828 
    104 H104       28.0661  -53.5730  -53.1289 H         1 UNK         0.0828 
    105 H105       28.8777  -52.3772  -52.1309 H         1 UNK         0.0828 
    106 H106       29.4454  -50.2620  -53.6515 H         1 UNK         0.3005 
    107 H107       28.2078  -47.1217  -54.5042 H         1 UNK         0.1257 
    108 H108       29.0253  -47.6919  -51.6182 H         1 UNK         0.0775 
    109 H109       27.5160  -46.9629  -52.0925 H         1 UNK         0.0775 
    110 H110       27.8599  -45.0027  -54.1893 H         1 UNK         0.0840 
    111 H111       28.2247  -43.5468  -53.3260 H         1 UNK         0.0840 
    112 H112       30.7909  -47.7025  -53.5810 H         1 UNK         0.2987 
    113 H113       31.8888  -49.5285  -56.4762 H         1 UNK         0.0785 
    114 H114       32.0739  -47.2811  -57.3423 H         1 UNK         0.0798 
    115 H115       33.5813  -47.6225  -56.5105 H         1 UNK         0.0798 
    116 H116       32.3559  -46.6008  -55.7505 H         1 UNK         0.0798 
    117 H117       33.4913  -48.6635  -54.3880 H         1 UNK         0.3079 
    118 H118       32.9018  -51.3768  -52.1059 H         1 UNK         0.0794 
    119 H119       35.3282  -51.6301  -52.5768 H         1 UNK         0.0786 
    120 H120       35.1710  -50.6635  -54.0419 H         1 UNK         0.0786 
    121 H121       34.3663  -52.2219  -53.9220 H         1 UNK         0.0786 
    122 H122       34.4591  -48.8601  -52.4438 H         1 UNK         0.3032 
    123 H123       32.6736  -47.2194  -49.9031 H         1 UNK         0.1094 
    124 H124       35.5447  -48.2673  -49.6107 H         1 UNK         0.0794 
    125 H125       34.8477  -46.8951  -48.7468 H         1 UNK         0.0794 
    126 H126       34.2488  -48.5176  -48.4493 H         1 UNK         0.0794 
    127 H127       35.0380  -46.4201  -51.2292 H         1 UNK         0.3016 
@<TRIPOS>BOND
     1    1    2 1    
     2    1   67 1    
     3    1   68 1    
     4    1   69 1    
     5    2    3 2    
     6    2    4 am   BACKBONE|DICT|INTERRES
     7    4    5 1    
     8    4   70 1    
     9    5    6 1    
    10    5   65 1    
    11    5   71 1    
    12    6    7 1    
    13    6   72 1    
    14    6   73 1    
    15    7    8 1    
    16    8    9 1    
    17    8   74 1    
    18    8   75 1    
    19    9   10 ar   
    20    9   14 ar   
    21   10   11 ar   
    22   10   76 1    
    23   11   12 ar   
    24   11   48 1    
    25   12   13 ar   
    26   12   77 1    
    27   13   14 ar   
    28   13   15 1    
    29   14   78 1    
    30   15   16 1    
    31   15   79 1    
    32   15   80 1    
    33   16   17 1    
    34   17   18 1    
    35   17   81 1    
    36   17   82 1    
    37   18   19 1    
    38   18   22 1    
    39   18   83 1    
    40   19   20 am   BACKBONE|DICT|INTERRES
    41   19   21 2    
    42   20   84 1    
    43   20   85 1    
    44   22   23 am   BACKBONE|DICT|INTERRES
    45   22   86 1    
    46   23   24 2    
    47   23   25 1    
    48   25   26 1    
    49   25   27 1    
    50   25   87 1    
    51   26   88 1    
    52   26   89 1    
    53   26   90 1    
    54   27   28 am   BACKBONE|DICT|INTERRES
    55   27   91 1    
    56   28   29 2    
    57   28   30 1    
    58   30   31 1    
    59   30   32 1    
    60   30   92 1    
    61   31   93 1    
    62   31   94 1    
    63   31   95 1    
    64   32   33 am   BACKBONE|DICT|INTERRES
    65   32   96 1    
    66   33   34 2    
    67   33   35 1    
    68   35   36 1    
    69   35   37 1    
    70   35   97 1    
    71   36   98 1    
    72   36   99 1    
    73   36  100 1    
    74   37   38 am   BACKBONE|DICT|INTERRES
    75   37  101 1    
    76   38   39 2    
    77   38   40 1    
    78   40   41 1    
    79   40   42 1    
    80   40  102 1    
    81   41  103 1    
    82   41  104 1    
    83   41  105 1    
    84   42   43 am   BACKBONE|DICT|INTERRES
    85   42  106 1    
    86   43   44 2    
    87   43   45 1    
    88   45   46 1    
    89   45   49 1    
    90   45  107 1    
    91   46   47 1    
    92   46  108 1    
    93   46  109 1    
    94   47   48 1    
    95   48  110 1    
    96   48  111 1    
    97   49   50 am   BACKBONE|DICT|INTERRES
    98   49  112 1    
    99   50   51 2    
   100   50   52 1    
   101   52   53 1    
   102   52   54 1    
   103   52  113 1    
   104   53  114 1    
   105   53  115 1    
   106   53  116 1    
   107   54   55 am   BACKBONE|DICT|INTERRES
   108   54  117 1    
   109   55   56 2    
   110   55   57 1    
   111   57   58 1    
   112   57   59 1    
   113   57  118 1    
   114   58  119 1    
   115   58  120 1    
   116   58  121 1    
   117   59   60 am   BACKBONE|DICT|INTERRES
   118   59  122 1    
   119   60   61 2    
   120   60   62 1    
   121   62   63 1    
   122   62   64 1    
   123   62  123 1    
   124   63  124 1    
   125   63  125 1    
   126   63  126 1    
   127   64   65 am   BACKBONE|DICT|INTERRES
   128   64  127 1    
   129   65   66 2    
@<TRIPOS>SUBSTRUCTURE
     1 UNK         1 GROUP             0       ****    0 ROOT    
