@<TRIPOS>MOLECULE
3R134
127   129    1
SMALL
USER_CHARGES


@<TRIPOS>ATOM
      1 CA         31.6717  -46.9041  -57.8992 C.3       0 UNK        -0.1968 
      2 C          32.2502  -46.5883  -56.5299 C.2       0 UNK         0.4852 
      3 O          31.9543  -47.2960  -55.5629 O.2       0 UNK        -0.5359 
      4 N          33.0725  -45.5329  -56.4480 N.am      1 UNK        -0.4300 
      5 CA         33.7750  -45.0975  -55.2378 C.3       1 UNK         0.0863 
      6 C6         34.5339  -43.7604  -55.4356 C.3       11 UNK        -0.0953 
      7 S7         33.4713  -42.3835  -55.9823 S.3       11 UNK        -0.2369 
      8 C8         33.1262  -41.5379  -54.4075 C.3       11 UNK         0.0226 
      9 C9         32.0984  -42.3054  -53.5930 C.ar      11 UNK        -0.0699 
     10 C10        32.4947  -43.1367  -52.5413 C.ar      11 UNK        -0.0804 
     11 C11        31.5466  -43.8795  -51.8303 C.ar      11 UNK        -0.0871 
     12 C12        30.1918  -43.7591  -52.1579 C.ar      11 UNK        -0.1008 
     13 C13        29.7881  -42.9411  -53.2174 C.ar      11 UNK        -0.0735 
     14 C14        30.7447  -42.2052  -53.9200 C.ar      11 UNK        -0.0945 
     15 C15        28.3230  -42.8685  -53.6224 C.3       11 UNK         0.0169 
     16 S16        27.7796  -44.3790  -54.4848 S.3       11 UNK        -0.2669 
     17 C17        28.7745  -44.3603  -56.0182 C.3       11 UNK        -0.0850 
     18 CA         27.9208  -44.0973  -57.2865 C.3       10 UNK         0.0855 
     19 C          28.8276  -43.9761  -58.5485 C.2       10 UNK         0.5543 
     20 N          28.6906  -44.8204  -59.5651 N.am      10 UNK        -0.7343 
     21 O          29.6776  -43.0917  -58.6038 O.2       10 UNK        -0.5027 
     22 N          26.8318  -45.0771  -57.4081 N.am      10 UNK        -0.4495 
     23 C          25.7360  -44.9382  -58.1635 C.2       10 UNK         0.4903 
     24 O          25.4570  -43.9140  -58.7888 O.2       10 UNK        -0.4860 
     25 CA         24.8151  -46.1735  -58.2379 C.3       9 UNK         0.0227 
     26 CB         23.8483  -46.1325  -59.4405 C.3       9 UNK        -0.1964 
     27 N          25.5632  -47.4402  -58.2060 N.am      9 UNK        -0.4231 
     28 C          26.4989  -47.8482  -59.0816 C.2       9 UNK         0.5014 
     29 O          26.8277  -47.1933  -60.0719 O.2       9 UNK        -0.5270 
     30 CA         27.2483  -49.1649  -58.7909 C.3       8 UNK         0.0284 
     31 CB         28.7684  -48.9303  -58.7754 C.3       8 UNK        -0.1977 
     32 N          26.8667  -49.7859  -57.5211 N.am      8 UNK        -0.4342 
     33 C          25.8239  -50.6044  -57.3424 C.2       8 UNK         0.5039 
     34 O          25.0785  -50.9732  -58.2503 O.2       8 UNK        -0.5547 
     35 CA         25.5510  -51.0748  -55.9011 C.3       7 UNK         0.0281 
     36 CB         26.1463  -52.4744  -55.6740 C.3       7 UNK        -0.1963 
     37 N          26.0207  -50.1696  -54.8393 N.am      7 UNK        -0.4444 
     38 C          25.6162  -48.9013  -54.6683 C.2       7 UNK         0.5104 
     39 O          24.9334  -48.2827  -55.4840 O.2       7 UNK        -0.5100 
     40 CA         26.0636  -48.2078  -53.3783 C.3       6 UNK         0.0396 
     41 CB         25.5194  -48.9452  -52.1355 C.3       6 UNK        -0.1801 
     42 N          27.5220  -48.0828  -53.3401 N.am      6 UNK        -0.4747 
     43 C          28.2052  -47.3191  -52.4740 C.2       6 UNK         0.5012 
     44 O          27.6522  -46.6471  -51.6012 O.2       6 UNK        -0.5003 
     45 CA         29.7504  -47.2555  -52.6084 C.3       5 UNK         0.0782 
     46 C46        30.4440  -47.1430  -51.2193 C.3       11 UNK        -0.0868 
     47 S47        32.1591  -46.5368  -51.3298 S.3       11 UNK        -0.2515 
     48 C48        31.9941  -44.8233  -50.7236 C.3       11 UNK         0.0199 
     49 N          30.3265  -48.3044  -53.4692 N.am      5 UNK        -0.4607 
     50 C          30.2773  -49.6282  -53.2566 C.2       4 UNK         0.5031 
     51 O          29.7605  -50.1489  -52.2689 O.2       4 UNK        -0.5119 
     52 CA         30.8528  -50.5300  -54.3525 C.3       4 UNK         0.0263 
     53 CB         29.9643  -50.5130  -55.6084 C.3       4 UNK        -0.1967 
     54 N          32.2190  -50.1505  -54.7062 N.am      4 UNK        -0.4237 
     55 C          33.1881  -51.0307  -54.9935 C.2       3 UNK         0.4908 
     56 O          33.0310  -52.2528  -54.9890 O.2       3 UNK        -0.5102 
     57 CA         34.5705  -50.4673  -55.3597 C.3       3 UNK         0.0241 
     58 CB         34.6616  -50.2224  -56.8749 C.3       3 UNK        -0.1971 
     59 N          34.9015  -49.2297  -54.6570 N.am      3 UNK        -0.4139 
     60 C          35.1065  -49.0946  -53.3415 C.2       2 UNK         0.5016 
     61 O          35.0716  -50.0335  -52.5457 O.2       2 UNK        -0.5319 
     62 CA         35.3863  -47.6732  -52.8136 C.3       2 UNK         0.0286 
     63 CB         36.8992  -47.3812  -52.7775 C.3       2 UNK        -0.1963 
     64 N          34.6446  -46.6033  -53.5040 N.am      2 UNK        -0.4790 
     65 C          34.7594  -46.1841  -54.7718 C.2       1 UNK         0.5024 
     66 O          35.5753  -46.6395  -55.5763 O.2       1 UNK        -0.4888 
     67 H67        30.6611  -46.5074  -57.9789 H         1 UNK         0.0892 
     68 H68        31.6354  -47.9821  -58.0537 H         1 UNK         0.0892 
     69 H69        32.2710  -46.4705  -58.6994 H         1 UNK         0.0892 
     70 H70        33.2749  -44.9940  -57.2774 H         1 UNK         0.3107 
     71 H71        33.0157  -44.9635  -54.4667 H         1 UNK         0.0773 
     72 H72        35.0429  -43.4699  -54.5146 H         1 UNK         0.0680 
     73 H73        35.3200  -43.8780  -56.1843 H         1 UNK         0.0680 
     74 H74        34.0505  -41.3980  -53.8449 H         1 UNK         0.0650 
     75 H75        32.7462  -40.5380  -54.6220 H         1 UNK         0.0650 
     76 H76        33.5439  -43.2251  -52.2945 H         1 UNK         0.1397 
     77 H77        29.4503  -44.3277  -51.6135 H         1 UNK         0.1363 
     78 H78        30.4415  -41.5733  -54.7438 H         1 UNK         0.1355 
     79 H79        28.1350  -42.0031  -54.2599 H         1 UNK         0.0707 
     80 H80        27.7092  -42.7320  -52.7309 H         1 UNK         0.0707 
     81 H81        29.2873  -45.3203  -56.0964 H         1 UNK         0.1034 
     82 H82        29.5637  -43.6130  -55.9344 H         1 UNK         0.1034 
     83 H83        27.4557  -43.1171  -57.1651 H         1 UNK         0.0482 
     84 H84        27.9754  -45.5379  -59.5661 H         1 UNK         0.3460 
     85 H85        29.2859  -44.7127  -60.3703 H         1 UNK         0.3460 
     86 H86        26.9603  -45.9439  -56.9101 H         1 UNK         0.2989 
     87 H87        24.2113  -46.1555  -57.3295 H         1 UNK         0.0559 
     88 H88        24.3829  -46.0846  -60.3897 H         1 UNK         0.0848 
     89 H89        23.1986  -45.2579  -59.3903 H         1 UNK         0.0848 
     90 H90        23.2045  -47.0116  -59.4619 H         1 UNK         0.0848 
     91 H91        25.3751  -48.0195  -57.3923 H         1 UNK         0.3144 
     92 H92        27.0192  -49.8511  -59.6090 H         1 UNK         0.0727 
     93 H93        29.3136  -49.8626  -58.6274 H         1 UNK         0.0790 
     94 H94        29.0534  -48.2409  -57.9816 H         1 UNK         0.0790 
     95 H95        29.1151  -48.5047  -59.7184 H         1 UNK         0.0790 
     96 H96        27.4128  -49.5379  -56.7117 H         1 UNK         0.3215 
     97 H97        24.4662  -51.1502  -55.7976 H         1 UNK         0.0863 
     98 H98        25.8698  -52.8719  -54.6972 H         1 UNK         0.0808 
     99 H99        27.2344  -52.4707  -55.7412 H         1 UNK         0.0808 
    100 H100       25.7789  -53.1797  -56.4212 H         1 UNK         0.0808 
    101 H101       26.5677  -50.5939  -54.1037 H         1 UNK         0.3118 
    102 H102       25.6386  -47.2016  -53.3925 H         1 UNK         0.0546 
    103 H103       24.4519  -49.1472  -52.2345 H         1 UNK         0.0828 
    104 H104       25.6439  -48.3505  -51.2309 H         1 UNK         0.0828 
    105 H105       26.0210  -49.8996  -51.9734 H         1 UNK         0.0828 
    106 H106       28.0406  -48.5797  -54.0483 H         1 UNK         0.3005 
    107 H107       29.9325  -46.3231  -53.1441 H         1 UNK         0.1257 
    108 H108       30.4530  -48.1095  -50.7141 H         1 UNK         0.0775 
    109 H109       29.9002  -46.4779  -50.5477 H         1 UNK         0.0775 
    110 H110       31.3032  -44.7783  -49.8804 H         1 UNK         0.0840 
    111 H111       32.9600  -44.5025  -50.3304 H         1 UNK         0.0840 
    112 H112       30.8047  -47.9584  -54.3000 H         1 UNK         0.2987 
    113 H113       30.8477  -51.5450  -53.9483 H         1 UNK         0.0785 
    114 H114       29.9628  -49.5323  -56.0840 H         1 UNK         0.0798 
    115 H115       28.9350  -50.7702  -55.3615 H         1 UNK         0.0798 
    116 H116       30.3100  -51.2386  -56.3450 H         1 UNK         0.0798 
    117 H117       32.4199  -49.1570  -54.7563 H         1 UNK         0.3079 
    118 H118       35.3166  -51.2158  -55.0846 H         1 UNK         0.0794 
    119 H119       33.9533  -49.4605  -57.2035 H         1 UNK         0.0786 
    120 H120       34.4427  -51.1344  -57.4322 H         1 UNK         0.0786 
    121 H121       35.6612  -49.8982  -57.1651 H         1 UNK         0.0786 
    122 H122       35.0127  -48.3925  -55.2219 H         1 UNK         0.3032 
    123 H123       35.0291  -47.6594  -51.7822 H         1 UNK         0.1094 
    124 H124       37.1034  -46.4005  -52.3477 H         1 UNK         0.0794 
    125 H125       37.4206  -48.1179  -52.1649 H         1 UNK         0.0794 
    126 H126       37.3485  -47.4135  -53.7703 H         1 UNK         0.0794 
    127 H127       33.8928  -46.2084  -52.9515 H         1 UNK         0.3016 
@<TRIPOS>BOND
     1    1    2 1    
     2    1   67 1    
     3    1   68 1    
     4    1   69 1    
     5    2    3 2    
     6    2    4 am   BACKBONE|DICT|INTERRES
     7    4    5 1    
     8    4   70 1    
     9    5    6 1    
    10    5   65 1    
    11    5   71 1    
    12    6    7 1    
    13    6   72 1    
    14    6   73 1    
    15    7    8 1    
    16    8    9 1    
    17    8   74 1    
    18    8   75 1    
    19    9   10 ar   
    20    9   14 ar   
    21   10   11 ar   
    22   10   76 1    
    23   11   12 ar   
    24   11   48 1    
    25   12   13 ar   
    26   12   77 1    
    27   13   14 ar   
    28   13   15 1    
    29   14   78 1    
    30   15   16 1    
    31   15   79 1    
    32   15   80 1    
    33   16   17 1    
    34   17   18 1    
    35   17   81 1    
    36   17   82 1    
    37   18   19 1    
    38   18   22 1    
    39   18   83 1    
    40   19   20 am   BACKBONE|DICT|INTERRES
    41   19   21 2    
    42   20   84 1    
    43   20   85 1    
    44   22   23 am   BACKBONE|DICT|INTERRES
    45   22   86 1    
    46   23   24 2    
    47   23   25 1    
    48   25   26 1    
    49   25   27 1    
    50   25   87 1    
    51   26   88 1    
    52   26   89 1    
    53   26   90 1    
    54   27   28 am   BACKBONE|DICT|INTERRES
    55   27   91 1    
    56   28   29 2    
    57   28   30 1    
    58   30   31 1    
    59   30   32 1    
    60   30   92 1    
    61   31   93 1    
    62   31   94 1    
    63   31   95 1    
    64   32   33 am   BACKBONE|DICT|INTERRES
    65   32   96 1    
    66   33   34 2    
    67   33   35 1    
    68   35   36 1    
    69   35   37 1    
    70   35   97 1    
    71   36   98 1    
    72   36   99 1    
    73   36  100 1    
    74   37   38 am   BACKBONE|DICT|INTERRES
    75   37  101 1    
    76   38   39 2    
    77   38   40 1    
    78   40   41 1    
    79   40   42 1    
    80   40  102 1    
    81   41  103 1    
    82   41  104 1    
    83   41  105 1    
    84   42   43 am   BACKBONE|DICT|INTERRES
    85   42  106 1    
    86   43   44 2    
    87   43   45 1    
    88   45   46 1    
    89   45   49 1    
    90   45  107 1    
    91   46   47 1    
    92   46  108 1    
    93   46  109 1    
    94   47   48 1    
    95   48  110 1    
    96   48  111 1    
    97   49   50 am   BACKBONE|DICT|INTERRES
    98   49  112 1    
    99   50   51 2    
   100   50   52 1    
   101   52   53 1    
   102   52   54 1    
   103   52  113 1    
   104   53  114 1    
   105   53  115 1    
   106   53  116 1    
   107   54   55 am   BACKBONE|DICT|INTERRES
   108   54  117 1    
   109   55   56 2    
   110   55   57 1    
   111   57   58 1    
   112   57   59 1    
   113   57  118 1    
   114   58  119 1    
   115   58  120 1    
   116   58  121 1    
   117   59   60 am   BACKBONE|DICT|INTERRES
   118   59  122 1    
   119   60   61 2    
   120   60   62 1    
   121   62   63 1    
   122   62   64 1    
   123   62  123 1    
   124   63  124 1    
   125   63  125 1    
   126   63  126 1    
   127   64   65 am   BACKBONE|DICT|INTERRES
   128   64  127 1    
   129   65   66 2    
@<TRIPOS>SUBSTRUCTURE
     1 UNK         1 GROUP             0       ****    0 ROOT    
