@<TRIPOS>MOLECULE
3R134
127   129    1
SMALL
USER_CHARGES


@<TRIPOS>ATOM
      1 CA         31.7385  -40.9486  -50.2708 C.3       0 UNK        -0.1968 
      2 C          32.6479  -42.1449  -50.5102 C.2       0 UNK         0.4852 
      3 O          33.6864  -42.2630  -49.8573 O.2       0 UNK        -0.5359 
      4 N          32.2647  -43.0249  -51.4409 N.am      1 UNK        -0.4300 
      5 CA         32.9553  -44.2790  -51.7481 C.3       1 UNK         0.0863 
      6 C6         32.8116  -44.6470  -53.2473 C.3       11 UNK        -0.0953 
      7 S7         33.9320  -43.6375  -54.2743 S.3       11 UNK        -0.2369 
      8 C8         32.8109  -42.3916  -54.9998 C.3       11 UNK         0.0226 
      9 C9         31.8757  -42.9357  -56.0779 C.ar      11 UNK        -0.0699 
     10 C10        32.2969  -43.9131  -56.9876 C.ar      11 UNK        -0.0804 
     11 C11        31.4196  -44.4243  -57.9508 C.ar      11 UNK        -0.0871 
     12 C12        30.1170  -43.9223  -58.0209 C.ar      11 UNK        -0.1008 
     13 C13        29.6921  -42.9209  -57.1436 C.ar      11 UNK        -0.0735 
     14 C14        30.5775  -42.4273  -56.1804 C.ar      11 UNK        -0.0945 
     15 C15        28.2732  -42.3794  -57.2365 C.3       11 UNK         0.0169 
     16 S16        27.0766  -43.4802  -56.4173 S.3       11 UNK        -0.2669 
     17 C17        27.4812  -43.2267  -54.6550 C.3       11 UNK        -0.0850 
     18 CA         28.4564  -44.2941  -54.0949 C.3       10 UNK         0.0855 
     19 C          28.9009  -43.9334  -52.6508 C.2       10 UNK         0.5543 
     20 N          28.5348  -44.7008  -51.6331 N.am      10 UNK        -0.7343 
     21 O          29.6075  -42.9465  -52.4593 O.2       10 UNK        -0.5027 
     22 N          27.9470  -45.6615  -54.2736 N.am      10 UNK        -0.4495 
     23 C          28.7014  -46.7638  -54.2154 C.2       10 UNK         0.4903 
     24 O          29.9093  -46.7613  -53.9778 O.2       10 UNK        -0.4860 
     25 CA         28.0000  -48.0967  -54.5065 C.3       9 UNK         0.0227 
     26 CB         27.1777  -48.5951  -53.3017 C.3       9 UNK        -0.1964 
     27 N          27.2302  -48.0892  -55.7535 N.am      9 UNK        -0.4231 
     28 C          26.0539  -47.5065  -56.0272 C.2       9 UNK         0.5014 
     29 O          25.4112  -46.8371  -55.2173 O.2       9 UNK        -0.5270 
     30 CA         25.5065  -47.6925  -57.4530 C.3       8 UNK         0.0284 
     31 CB         25.7604  -46.4289  -58.2909 C.3       8 UNK        -0.1977 
     32 N          26.1265  -48.8345  -58.1282 N.am      8 UNK        -0.4342 
     33 C          25.6631  -50.0919  -58.1294 C.2       8 UNK         0.5039 
     34 O          24.6036  -50.4195  -57.5932 O.2       8 UNK        -0.5547 
     35 CA         26.5283  -51.1815  -58.8066 C.3       7 UNK         0.0281 
     36 CB         25.7020  -52.0635  -59.7662 C.3       7 UNK        -0.1963 
     37 N          27.7473  -50.6757  -59.4568 N.am      7 UNK        -0.4444 
     38 C          27.8377  -49.8532  -60.5157 C.2       7 UNK         0.5104 
     39 O          26.8721  -49.5158  -61.2009 O.2       7 UNK        -0.5100 
     40 CA         29.2295  -49.2551  -60.8256 C.3       6 UNK         0.0396 
     41 CB         29.1260  -47.8252  -61.3980 C.3       6 UNK        -0.1801 
     42 N          30.1692  -49.2700  -59.6933 N.am      6 UNK        -0.4747 
     43 C          29.9898  -48.7261  -58.4786 C.2       6 UNK         0.5012 
     44 O          28.9577  -48.1517  -58.1244 O.2       6 UNK        -0.5003 
     45 CA         31.1351  -48.9136  -57.4655 C.3       5 UNK         0.0782 
     46 C46        31.6913  -47.5525  -56.9810 C.3       11 UNK        -0.0868 
     47 S47        32.8656  -46.8292  -58.1735 S.3       11 UNK        -0.2515 
     48 C48        31.8663  -45.5036  -58.9340 C.3       11 UNK         0.0199 
     49 N          30.7440  -49.7565  -56.3318 N.am      5 UNK        -0.4607 
     50 C          30.1977  -50.9810  -56.3791 C.2       4 UNK         0.5031 
     51 O          29.8535  -51.5368  -57.4241 O.2       4 UNK        -0.5119 
     52 CA         30.0502  -51.7163  -55.0302 C.3       4 UNK         0.0263 
     53 CB         29.8708  -53.2356  -55.2086 C.3       4 UNK        -0.1967 
     54 N          31.2175  -51.4685  -54.1739 N.am      4 UNK        -0.4237 
     55 C          31.2871  -50.5211  -53.2307 C.2       3 UNK         0.4908 
     56 O          30.3275  -49.8269  -52.8930 O.2       3 UNK        -0.5102 
     57 CA         32.6622  -50.2697  -52.5958 C.3       3 UNK         0.0241 
     58 CB         33.7351  -49.9441  -53.6570 C.3       3 UNK        -0.1971 
     59 N          32.5337  -49.1476  -51.6702 N.am      3 UNK        -0.4139 
     60 C          33.3285  -48.8813  -50.6312 C.2       2 UNK         0.5016 
     61 O          34.3192  -49.5508  -50.3316 O.2       2 UNK        -0.5319 
     62 CA         32.9733  -47.6195  -49.8345 C.3       2 UNK         0.0286 
     63 CB         33.7539  -47.4986  -48.5112 C.3       2 UNK        -0.1963 
     64 N          33.2521  -46.4524  -50.6705 N.am      2 UNK        -0.4790 
     65 C          32.4386  -45.4014  -50.8247 C.2       1 UNK         0.5024 
     66 O          31.3409  -45.3031  -50.2704 O.2       1 UNK        -0.4888 
     67 H67        32.2840  -40.0213  -50.4433 H         1 UNK         0.0892 
     68 H68        30.8711  -40.9589  -50.9310 H         1 UNK         0.0892 
     69 H69        31.3808  -40.9492  -49.2416 H         1 UNK         0.0892 
     70 H70        31.3492  -42.9193  -51.8745 H         1 UNK         0.3107 
     71 H71        34.0185  -44.1601  -51.5262 H         1 UNK         0.0773 
     72 H72        33.0794  -45.6902  -53.4257 H         1 UNK         0.0680 
     73 H73        31.7809  -44.5417  -53.5900 H         1 UNK         0.0680 
     74 H74        32.2390  -41.9303  -54.1930 H         1 UNK         0.0650 
     75 H75        33.4166  -41.5997  -55.4415 H         1 UNK         0.0650 
     76 H76        33.3084  -44.2906  -56.9374 H         1 UNK         0.1397 
     77 H77        29.4275  -44.3089  -58.7593 H         1 UNK         0.1363 
     78 H78        30.2473  -41.6590  -55.4946 H         1 UNK         0.1355 
     79 H79        27.9927  -42.2773  -58.2859 H         1 UNK         0.0707 
     80 H80        28.2090  -41.3782  -56.8076 H         1 UNK         0.0707 
     81 H81        26.5481  -43.2401  -54.0891 H         1 UNK         0.1034 
     82 H82        27.8907  -42.2228  -54.5280 H         1 UNK         0.1034 
     83 H83        29.3704  -44.2463  -54.6848 H         1 UNK         0.0482 
     84 H84        27.9731  -45.5210  -51.7902 H         1 UNK         0.3460 
     85 H85        28.8796  -44.4907  -50.7096 H         1 UNK         0.3460 
     86 H86        26.9650  -45.7638  -54.5079 H         1 UNK         0.2989 
     87 H87        28.7862  -48.8274  -54.6776 H         1 UNK         0.0559 
     88 H88        26.7345  -49.5704  -53.5018 H         1 UNK         0.0848 
     89 H89        26.3749  -47.9084  -53.0339 H         1 UNK         0.0848 
     90 H90        27.8139  -48.7042  -52.4225 H         1 UNK         0.0848 
     91 H91        27.7237  -48.4759  -56.5505 H         1 UNK         0.3144 
     92 H92        24.4282  -47.8487  -57.3816 H         1 UNK         0.0727 
     93 H93        25.3749  -46.5398  -59.3046 H         1 UNK         0.0790 
     94 H94        26.8243  -46.1955  -58.3593 H         1 UNK         0.0790 
     95 H95        25.2648  -45.5638  -57.8485 H         1 UNK         0.0790 
     96 H96        27.0310  -48.6586  -58.5526 H         1 UNK         0.3215 
     97 H97        26.8784  -51.8226  -57.9958 H         1 UNK         0.0863 
     98 H98        26.3178  -52.8373  -60.2243 H         1 UNK         0.0808 
     99 H99        25.2439  -51.4800  -60.5651 H         1 UNK         0.0808 
    100 H100       24.8943  -52.5674  -59.2339 H         1 UNK         0.0808 
    101 H101       28.6082  -50.8913  -58.9612 H         1 UNK         0.3118 
    102 H102       29.6667  -49.8921  -61.5957 H         1 UNK         0.0546 
    103 H103       28.6387  -47.1442  -60.6991 H         1 UNK         0.0828 
    104 H104       28.5471  -47.8108  -62.3223 H         1 UNK         0.0828 
    105 H105       30.1099  -47.4184  -61.6310 H         1 UNK         0.0828 
    106 H106       31.0332  -49.7660  -59.8672 H         1 UNK         0.3005 
    107 H107       31.9450  -49.4555  -57.9587 H         1 UNK         0.1257 
    108 H108       30.8921  -46.8488  -56.7380 H         1 UNK         0.0775 
    109 H109       32.2481  -47.6820  -56.0516 H         1 UNK         0.0775 
    110 H110       32.4542  -45.0321  -59.7223 H         1 UNK         0.0840 
    111 H111       31.0036  -45.9579  -59.4241 H         1 UNK         0.0840 
    112 H112       30.9479  -49.3769  -55.4190 H         1 UNK         0.2987 
    113 H113       29.1456  -51.3317  -54.5544 H         1 UNK         0.0785 
    114 H114       29.7637  -53.7370  -54.2466 H         1 UNK         0.0798 
    115 H115       30.7176  -53.6846  -55.7292 H         1 UNK         0.0798 
    116 H116       28.9744  -53.4597  -55.7887 H         1 UNK         0.0798 
    117 H117       32.0544  -51.9864  -54.4035 H         1 UNK         0.3079 
    118 H118       32.9468  -51.1662  -52.0411 H         1 UNK         0.0794 
    119 H119       33.8890  -50.7757  -54.3449 H         1 UNK         0.0786 
    120 H120       34.7001  -49.7376  -53.1938 H         1 UNK         0.0786 
    121 H121       33.4611  -49.0712  -54.2510 H         1 UNK         0.0786 
    122 H122       31.7062  -48.5837  -51.8295 H         1 UNK         0.3032 
    123 H123       31.9082  -47.6804  -49.5972 H         1 UNK         0.1094 
    124 H124       34.8288  -47.4221  -48.6799 H         1 UNK         0.0794 
    125 H125       33.4409  -46.6195  -47.9478 H         1 UNK         0.0794 
    126 H126       33.5825  -48.3687  -47.8761 H         1 UNK         0.0794 
    127 H127       34.1235  -46.4799  -51.1834 H         1 UNK         0.3016 
@<TRIPOS>BOND
     1    1    2 1    
     2    1   67 1    
     3    1   68 1    
     4    1   69 1    
     5    2    3 2    
     6    2    4 am   BACKBONE|DICT|INTERRES
     7    4    5 1    
     8    4   70 1    
     9    5    6 1    
    10    5   65 1    
    11    5   71 1    
    12    6    7 1    
    13    6   72 1    
    14    6   73 1    
    15    7    8 1    
    16    8    9 1    
    17    8   74 1    
    18    8   75 1    
    19    9   10 ar   
    20    9   14 ar   
    21   10   11 ar   
    22   10   76 1    
    23   11   12 ar   
    24   11   48 1    
    25   12   13 ar   
    26   12   77 1    
    27   13   14 ar   
    28   13   15 1    
    29   14   78 1    
    30   15   16 1    
    31   15   79 1    
    32   15   80 1    
    33   16   17 1    
    34   17   18 1    
    35   17   81 1    
    36   17   82 1    
    37   18   19 1    
    38   18   22 1    
    39   18   83 1    
    40   19   20 am   BACKBONE|DICT|INTERRES
    41   19   21 2    
    42   20   84 1    
    43   20   85 1    
    44   22   23 am   BACKBONE|DICT|INTERRES
    45   22   86 1    
    46   23   24 2    
    47   23   25 1    
    48   25   26 1    
    49   25   27 1    
    50   25   87 1    
    51   26   88 1    
    52   26   89 1    
    53   26   90 1    
    54   27   28 am   BACKBONE|DICT|INTERRES
    55   27   91 1    
    56   28   29 2    
    57   28   30 1    
    58   30   31 1    
    59   30   32 1    
    60   30   92 1    
    61   31   93 1    
    62   31   94 1    
    63   31   95 1    
    64   32   33 am   BACKBONE|DICT|INTERRES
    65   32   96 1    
    66   33   34 2    
    67   33   35 1    
    68   35   36 1    
    69   35   37 1    
    70   35   97 1    
    71   36   98 1    
    72   36   99 1    
    73   36  100 1    
    74   37   38 am   BACKBONE|DICT|INTERRES
    75   37  101 1    
    76   38   39 2    
    77   38   40 1    
    78   40   41 1    
    79   40   42 1    
    80   40  102 1    
    81   41  103 1    
    82   41  104 1    
    83   41  105 1    
    84   42   43 am   BACKBONE|DICT|INTERRES
    85   42  106 1    
    86   43   44 2    
    87   43   45 1    
    88   45   46 1    
    89   45   49 1    
    90   45  107 1    
    91   46   47 1    
    92   46  108 1    
    93   46  109 1    
    94   47   48 1    
    95   48  110 1    
    96   48  111 1    
    97   49   50 am   BACKBONE|DICT|INTERRES
    98   49  112 1    
    99   50   51 2    
   100   50   52 1    
   101   52   53 1    
   102   52   54 1    
   103   52  113 1    
   104   53  114 1    
   105   53  115 1    
   106   53  116 1    
   107   54   55 am   BACKBONE|DICT|INTERRES
   108   54  117 1    
   109   55   56 2    
   110   55   57 1    
   111   57   58 1    
   112   57   59 1    
   113   57  118 1    
   114   58  119 1    
   115   58  120 1    
   116   58  121 1    
   117   59   60 am   BACKBONE|DICT|INTERRES
   118   59  122 1    
   119   60   61 2    
   120   60   62 1    
   121   62   63 1    
   122   62   64 1    
   123   62  123 1    
   124   63  124 1    
   125   63  125 1    
   126   63  126 1    
   127   64   65 am   BACKBONE|DICT|INTERRES
   128   64  127 1    
   129   65   66 2    
@<TRIPOS>SUBSTRUCTURE
     1 UNK         1 GROUP             0       ****    0 ROOT    
