@<TRIPOS>MOLECULE
3R134
127   129    1
SMALL
USER_CHARGES


@<TRIPOS>ATOM
      1 CA         29.8088  -45.5647  -49.6918 C.3       0 UNK        -0.1968 
      2 C          31.2936  -45.2702  -49.8495 C.2       0 UNK         0.4852 
      3 O          32.0704  -45.5385  -48.9321 O.2       0 UNK        -0.5359 
      4 N          31.6882  -44.7194  -51.0058 N.am      1 UNK        -0.4300 
      5 CA         33.0762  -44.4187  -51.3790 C.3       1 UNK         0.0863 
      6 C6         33.1048  -43.5620  -52.6671 C.3       11 UNK        -0.0953 
      7 S7         34.7472  -42.8963  -53.1095 S.3       11 UNK        -0.2369 
      8 C8         34.3200  -41.6799  -54.4029 C.3       11 UNK         0.0226 
      9 C9         33.3301  -42.2403  -55.4154 C.ar      11 UNK        -0.0699 
     10 C10        33.7156  -43.2604  -56.2905 C.ar      11 UNK        -0.0804 
     11 C11        32.7813  -43.8464  -57.1498 C.ar      11 UNK        -0.0871 
     12 C12        31.4641  -43.3766  -57.1578 C.ar      11 UNK        -0.1008 
     13 C13        31.0683  -42.3564  -56.2891 C.ar      11 UNK        -0.0735 
     14 C14        32.0080  -41.7845  -55.4276 C.ar      11 UNK        -0.0945 
     15 C15        29.6175  -41.9038  -56.2454 C.3       11 UNK         0.0169 
     16 S16        28.7340  -42.7303  -54.8863 S.3       11 UNK        -0.2669 
     17 C17        27.0372  -42.0902  -55.1054 C.3       11 UNK        -0.0850 
     18 CA         26.0282  -43.2122  -55.4721 C.3       10 UNK         0.0855 
     19 C          24.5579  -42.7039  -55.4194 C.2       10 UNK         0.5543 
     20 N          23.7469  -42.8998  -56.4522 N.am      10 UNK        -0.7343 
     21 O          24.1393  -42.1315  -54.4161 O.2       10 UNK        -0.5027 
     22 N          26.3832  -43.8603  -56.7470 N.am      10 UNK        -0.4495 
     23 C          26.3843  -45.1801  -56.9627 C.2       10 UNK         0.4903 
     24 O          26.0665  -46.0178  -56.1159 O.2       10 UNK        -0.4860 
     25 CA         26.8372  -45.6207  -58.3652 C.3       9 UNK         0.0227 
     26 CB         28.2893  -45.1837  -58.6360 C.3       9 UNK        -0.1964 
     27 N          26.7641  -47.0740  -58.5084 N.am      9 UNK        -0.4231 
     28 C          25.7287  -47.7555  -59.0106 C.2       9 UNK         0.5014 
     29 O          24.7025  -47.2211  -59.4345 O.2       9 UNK        -0.5270 
     30 CA         25.8521  -49.2860  -59.0823 C.3       8 UNK         0.0284 
     31 CB         26.5849  -49.7127  -60.3666 C.3       8 UNK        -0.1977 
     32 N          26.5187  -49.8770  -57.9155 N.am      8 UNK        -0.4342 
     33 C          26.1538  -51.0391  -57.3515 C.2       8 UNK         0.5039 
     34 O          25.2045  -51.7176  -57.7483 O.2       8 UNK        -0.5547 
     35 CA         26.9762  -51.5672  -56.1568 C.3       7 UNK         0.0281 
     36 CB         27.9289  -52.6821  -56.6195 C.3       7 UNK        -0.1963 
     37 N          27.7544  -50.5455  -55.4570 N.am      7 UNK        -0.4444 
     38 C          27.2459  -49.5031  -54.7882 C.2       7 UNK         0.5104 
     39 O          26.0425  -49.3498  -54.5783 O.2       7 UNK        -0.5100 
     40 CA         28.2410  -48.4368  -54.2913 C.3       6 UNK         0.0396 
     41 CB         28.4802  -48.5892  -52.7810 C.3       6 UNK        -0.1801 
     42 N          29.5386  -48.4188  -54.9811 N.am      6 UNK        -0.4747 
     43 C          29.7354  -48.2471  -56.2977 C.2       6 UNK         0.5012 
     44 O          28.8281  -48.2028  -57.1277 O.2       6 UNK        -0.5003 
     45 CA         31.1934  -48.1517  -56.7728 C.3       5 UNK         0.0782 
     46 C46        31.8401  -46.8293  -56.2990 C.3       11 UNK        -0.0868 
     47 S47        33.4724  -46.5366  -57.0607 S.3       11 UNK        -0.2515 
     48 C48        33.1824  -45.0198  -58.0342 C.3       11 UNK         0.0199 
     49 N          31.9298  -49.3348  -56.3310 N.am      5 UNK        -0.4607 
     50 C          31.8399  -50.5384  -56.9124 C.2       4 UNK         0.5031 
     51 O          31.2052  -50.7559  -57.9442 O.2       4 UNK        -0.5119 
     52 CA         32.5649  -51.7039  -56.2175 C.3       4 UNK         0.0263 
     53 CB         33.9914  -51.8542  -56.7699 C.3       4 UNK        -0.1967 
     54 N          32.6206  -51.5603  -54.7603 N.am      4 UNK        -0.4237 
     55 C          31.5534  -51.5890  -53.9482 C.2       3 UNK         0.4908 
     56 O          30.4001  -51.7811  -54.3330 O.2       3 UNK        -0.5102 
     57 CA         31.8182  -51.3106  -52.4586 C.3       3 UNK         0.0241 
     58 CB         32.2123  -52.6041  -51.7278 C.3       3 UNK        -0.1971 
     59 N          32.8410  -50.2815  -52.2311 N.am      3 UNK        -0.4139 
     60 C          32.7250  -49.0059  -52.6230 C.2       2 UNK         0.5016 
     61 O          31.7552  -48.5633  -53.2449 O.2       2 UNK        -0.5319 
     62 CA         33.8940  -48.0695  -52.3131 C.3       2 UNK         0.0286 
     63 CB         34.9241  -48.0869  -53.4574 C.3       2 UNK        -0.1963 
     64 N          33.3410  -46.7304  -52.1518 N.am      2 UNK        -0.4790 
     65 C          33.9207  -45.7065  -51.5157 C.2       1 UNK         0.5024 
     66 O          35.0473  -45.7597  -51.0192 O.2       1 UNK        -0.4888 
     67 H67        29.4102  -45.0331  -48.8281 H         1 UNK         0.0892 
     68 H68        29.2361  -45.2632  -50.5689 H         1 UNK         0.0892 
     69 H69        29.6532  -46.6321  -49.5372 H         1 UNK         0.0892 
     70 H70        30.9939  -44.5092  -51.7086 H         1 UNK         0.3107 
     71 H71        33.5091  -43.8283  -50.5685 H         1 UNK         0.0773 
     72 H72        32.4302  -42.7117  -52.5521 H         1 UNK         0.0680 
     73 H73        32.7231  -44.1401  -53.5113 H         1 UNK         0.0680 
     74 H74        35.2312  -41.3699  -54.9161 H         1 UNK         0.0650 
     75 H75        33.9169  -40.7862  -53.9241 H         1 UNK         0.0650 
     76 H76        34.7303  -43.6341  -56.2648 H         1 UNK         0.1397 
     77 H77        30.7366  -43.8300  -57.8153 H         1 UNK         0.1363 
     78 H78        31.6970  -41.0115  -54.7381 H         1 UNK         0.1355 
     79 H79        29.1208  -42.1231  -57.1916 H         1 UNK         0.0707 
     80 H80        29.5687  -40.8222  -56.1092 H         1 UNK         0.0707 
     81 H81        26.7526  -41.6118  -54.1662 H         1 UNK         0.1034 
     82 H82        27.0245  -41.3002  -55.8582 H         1 UNK         0.1034 
     83 H83        26.0894  -43.9554  -54.6747 H         1 UNK         0.0482 
     84 H84        22.7953  -42.5708  -56.4033 H         1 UNK         0.3460 
     85 H85        24.0722  -43.3860  -57.2721 H         1 UNK         0.3460 
     86 H86        26.6337  -43.2391  -57.5016 H         1 UNK         0.2989 
     87 H87        26.1875  -45.1438  -59.1019 H         1 UNK         0.0559 
     88 H88        28.3763  -44.0981  -58.6815 H         1 UNK         0.0848 
     89 H89        28.6500  -45.5709  -59.5892 H         1 UNK         0.0848 
     90 H90        28.9660  -45.5340  -57.8560 H         1 UNK         0.0848 
     91 H91        27.5508  -47.5794  -58.1044 H         1 UNK         0.3144 
     92 H92        24.8285  -49.6626  -59.1401 H         1 UNK         0.0727 
     93 H93        27.6285  -49.3954  -60.3583 H         1 UNK         0.0790 
     94 H94        26.1157  -49.2765  -61.2496 H         1 UNK         0.0790 
     95 H95        26.5653  -50.7955  -60.4917 H         1 UNK         0.0790 
     96 H96        27.3063  -49.3711  -57.5209 H         1 UNK         0.3215 
     97 H97        26.2697  -51.9930  -55.4413 H         1 UNK         0.0863 
     98 H98        28.4409  -53.1428  -55.7744 H         1 UNK         0.0808 
     99 H99        28.6883  -52.3036  -57.3055 H         1 UNK         0.0808 
    100 H100       27.3853  -53.4737  -57.1372 H         1 UNK         0.0808 
    101 H101       28.7625  -50.6275  -55.5031 H         1 UNK         0.3118 
    102 H102       27.7767  -47.4641  -54.4640 H         1 UNK         0.0546 
    103 H103       28.9667  -49.5367  -52.5483 H         1 UNK         0.0828 
    104 H104       27.5397  -48.5595  -52.2294 H         1 UNK         0.0828 
    105 H105       29.1079  -47.7863  -52.3941 H         1 UNK         0.0828 
    106 H106       30.3581  -48.4827  -54.3771 H         1 UNK         0.3005 
    107 H107       31.1732  -48.1421  -57.8655 H         1 UNK         0.1257 
    108 H108       31.1789  -45.9934  -56.5254 H         1 UNK         0.0775 
    109 H109       31.9680  -46.8174  -55.2159 H         1 UNK         0.0775 
    110 H110       34.0940  -44.7672  -58.5777 H         1 UNK         0.0840 
    111 H111       32.4207  -45.2183  -58.7899 H         1 UNK         0.0840 
    112 H112       32.4407  -49.2454  -55.4653 H         1 UNK         0.2987 
    113 H113       32.0098  -52.6171  -56.4432 H         1 UNK         0.0785 
    114 H114       33.9773  -51.9882  -57.8526 H         1 UNK         0.0798 
    115 H115       34.4930  -52.7238  -56.3448 H         1 UNK         0.0798 
    116 H116       34.6023  -50.9754  -56.5589 H         1 UNK         0.0798 
    117 H117       33.5299  -51.4043  -54.3509 H         1 UNK         0.3079 
    118 H118       30.8843  -50.9484  -52.0243 H         1 UNK         0.0794 
    119 H119       32.3071  -52.4402  -50.6542 H         1 UNK         0.0786 
    120 H120       33.1592  -53.0047  -52.0920 H         1 UNK         0.0786 
    121 H121       31.4555  -53.3773  -51.8691 H         1 UNK         0.0786 
    122 H122       33.6706  -50.5685  -51.7309 H         1 UNK         0.3032 
    123 H123       34.3652  -48.3803  -51.3778 H         1 UNK         0.1094 
    124 H124       34.4810  -47.7696  -54.4020 H         1 UNK         0.0794 
    125 H125       35.7640  -47.4247  -53.2469 H         1 UNK         0.0794 
    126 H126       35.3325  -49.0872  -53.6055 H         1 UNK         0.0794 
    127 H127       32.3954  -46.6361  -52.5014 H         1 UNK         0.3016 
@<TRIPOS>BOND
     1    1    2 1    
     2    1   67 1    
     3    1   68 1    
     4    1   69 1    
     5    2    3 2    
     6    2    4 am   BACKBONE|DICT|INTERRES
     7    4    5 1    
     8    4   70 1    
     9    5    6 1    
    10    5   65 1    
    11    5   71 1    
    12    6    7 1    
    13    6   72 1    
    14    6   73 1    
    15    7    8 1    
    16    8    9 1    
    17    8   74 1    
    18    8   75 1    
    19    9   10 ar   
    20    9   14 ar   
    21   10   11 ar   
    22   10   76 1    
    23   11   12 ar   
    24   11   48 1    
    25   12   13 ar   
    26   12   77 1    
    27   13   14 ar   
    28   13   15 1    
    29   14   78 1    
    30   15   16 1    
    31   15   79 1    
    32   15   80 1    
    33   16   17 1    
    34   17   18 1    
    35   17   81 1    
    36   17   82 1    
    37   18   19 1    
    38   18   22 1    
    39   18   83 1    
    40   19   20 am   BACKBONE|DICT|INTERRES
    41   19   21 2    
    42   20   84 1    
    43   20   85 1    
    44   22   23 am   BACKBONE|DICT|INTERRES
    45   22   86 1    
    46   23   24 2    
    47   23   25 1    
    48   25   26 1    
    49   25   27 1    
    50   25   87 1    
    51   26   88 1    
    52   26   89 1    
    53   26   90 1    
    54   27   28 am   BACKBONE|DICT|INTERRES
    55   27   91 1    
    56   28   29 2    
    57   28   30 1    
    58   30   31 1    
    59   30   32 1    
    60   30   92 1    
    61   31   93 1    
    62   31   94 1    
    63   31   95 1    
    64   32   33 am   BACKBONE|DICT|INTERRES
    65   32   96 1    
    66   33   34 2    
    67   33   35 1    
    68   35   36 1    
    69   35   37 1    
    70   35   97 1    
    71   36   98 1    
    72   36   99 1    
    73   36  100 1    
    74   37   38 am   BACKBONE|DICT|INTERRES
    75   37  101 1    
    76   38   39 2    
    77   38   40 1    
    78   40   41 1    
    79   40   42 1    
    80   40  102 1    
    81   41  103 1    
    82   41  104 1    
    83   41  105 1    
    84   42   43 am   BACKBONE|DICT|INTERRES
    85   42  106 1    
    86   43   44 2    
    87   43   45 1    
    88   45   46 1    
    89   45   49 1    
    90   45  107 1    
    91   46   47 1    
    92   46  108 1    
    93   46  109 1    
    94   47   48 1    
    95   48  110 1    
    96   48  111 1    
    97   49   50 am   BACKBONE|DICT|INTERRES
    98   49  112 1    
    99   50   51 2    
   100   50   52 1    
   101   52   53 1    
   102   52   54 1    
   103   52  113 1    
   104   53  114 1    
   105   53  115 1    
   106   53  116 1    
   107   54   55 am   BACKBONE|DICT|INTERRES
   108   54  117 1    
   109   55   56 2    
   110   55   57 1    
   111   57   58 1    
   112   57   59 1    
   113   57  118 1    
   114   58  119 1    
   115   58  120 1    
   116   58  121 1    
   117   59   60 am   BACKBONE|DICT|INTERRES
   118   59  122 1    
   119   60   61 2    
   120   60   62 1    
   121   62   63 1    
   122   62   64 1    
   123   62  123 1    
   124   63  124 1    
   125   63  125 1    
   126   63  126 1    
   127   64   65 am   BACKBONE|DICT|INTERRES
   128   64  127 1    
   129   65   66 2    
@<TRIPOS>SUBSTRUCTURE
     1 UNK         1 GROUP             0       ****    0 ROOT    
