@<TRIPOS>MOLECULE
3R134
127   129    1
SMALL
USER_CHARGES


@<TRIPOS>ATOM
      1 CA         35.6779  -45.0595  -57.6453 C.3       0 UNK        -0.1968 
      2 C          35.0893  -45.4390  -56.2953 C.2       0 UNK         0.4852 
      3 O          34.4152  -46.4638  -56.1891 O.2       0 UNK        -0.5359 
      4 N          35.3576  -44.6356  -55.2557 N.am      1 UNK        -0.4300 
      5 CA         34.8152  -44.7876  -53.8961 C.3       1 UNK         0.0863 
      6 C6         35.1031  -43.5466  -53.0112 C.3       11 UNK        -0.0953 
      7 S7         34.4274  -41.9944  -53.6961 S.3       11 UNK        -0.2369 
      8 C8         32.8899  -41.7902  -52.7371 C.3       11 UNK         0.0226 
      9 C9         31.8047  -42.7397  -53.2213 C.ar      11 UNK        -0.0699 
     10 C10        31.6365  -43.9884  -52.6164 C.ar      11 UNK        -0.0804 
     11 C11        30.6949  -44.8952  -53.1112 C.ar      11 UNK        -0.0871 
     12 C12        29.8889  -44.5286  -54.1918 C.ar      11 UNK        -0.1008 
     13 C13        30.0234  -43.2683  -54.7829 C.ar      11 UNK        -0.0735 
     14 C14        30.9860  -42.3793  -54.2957 C.ar      11 UNK        -0.0945 
     15 C15        29.1448  -42.8774  -55.9610 C.3       11 UNK         0.0169 
     16 S16        27.4579  -42.4837  -55.4115 S.3       11 UNK        -0.2669 
     17 C17        26.7194  -41.7477  -56.9159 C.3       11 UNK        -0.0850 
     18 CA         26.3907  -42.7265  -58.0841 C.3       10 UNK         0.0855 
     19 C          27.5491  -42.8432  -59.1169 C.2       10 UNK         0.5543 
     20 N          27.8162  -41.7792  -59.8623 N.am      10 UNK        -0.7343 
     21 O          28.2169  -43.8679  -59.2430 O.2       10 UNK        -0.5027 
     22 N          25.9213  -44.0299  -57.6000 N.am      10 UNK        -0.4495 
     23 C          25.2160  -44.9139  -58.3100 C.2       10 UNK         0.4903 
     24 O          24.7301  -44.6809  -59.4186 O.2       10 UNK        -0.4860 
     25 CA         25.0695  -46.3080  -57.6764 C.3       9 UNK         0.0227 
     26 CB         23.8594  -47.0842  -58.2265 C.3       9 UNK        -0.1964 
     27 N          26.2795  -47.0993  -57.8946 N.am      9 UNK        -0.4231 
     28 C          27.4542  -46.9223  -57.2774 C.2       9 UNK         0.5014 
     29 O          27.6455  -46.0859  -56.3943 O.2       9 UNK        -0.5270 
     30 CA         28.5860  -47.8766  -57.6960 C.3       8 UNK         0.0284 
     31 CB         29.9471  -47.4919  -57.0850 C.3       8 UNK        -0.1977 
     32 N          28.2601  -49.2504  -57.3147 N.am      8 UNK        -0.4342 
     33 C          27.4211  -50.0613  -57.9729 C.2       8 UNK         0.5039 
     34 O          26.8773  -49.7620  -59.0374 O.2       8 UNK        -0.5547 
     35 CA         27.0908  -51.3981  -57.2976 C.3       7 UNK         0.0281 
     36 CB         28.2985  -52.3510  -57.3257 C.3       7 UNK        -0.1963 
     37 N          26.6707  -51.1679  -55.9150 N.am      7 UNK        -0.4444 
     38 C          25.4052  -50.9481  -55.5287 C.2       7 UNK         0.5104 
     39 O          24.4361  -51.0054  -56.2859 O.2       7 UNK        -0.5100 
     40 CA         25.1768  -50.6040  -54.0438 C.3       6 UNK         0.0396 
     41 CB         24.9202  -51.8820  -53.2298 C.3       6 UNK        -0.1801 
     42 N          26.3036  -49.8744  -53.4583 N.am      6 UNK        -0.4747 
     43 C          26.6066  -48.5959  -53.7309 C.2       6 UNK         0.5012 
     44 O          25.8648  -47.8518  -54.3701 O.2       6 UNK        -0.5003 
     45 CA         27.9705  -48.0663  -53.2294 C.3       5 UNK         0.0782 
     46 C46        27.7853  -46.9647  -52.1503 C.3       11 UNK        -0.0868 
     47 S47        29.2905  -46.4246  -51.2520 S.3       11 UNK        -0.2515 
     48 C48        30.5996  -46.2898  -52.5154 C.3       11 UNK         0.0199 
     49 N          28.8847  -49.1370  -52.7981 N.am      5 UNK        -0.4607 
     50 C          29.4797  -49.9984  -53.6310 C.2       4 UNK         0.5031 
     51 O          29.2162  -50.0743  -54.8323 O.2       4 UNK        -0.5119 
     52 CA         30.5164  -50.9583  -53.0319 C.3       4 UNK         0.0263 
     53 CB         29.9615  -52.3916  -52.9994 C.3       4 UNK        -0.1967 
     54 N          31.7490  -50.9289  -53.8222 N.am      4 UNK        -0.4237 
     55 C          32.5843  -49.8824  -53.8653 C.2       3 UNK         0.4908 
     56 O          32.4482  -48.8745  -53.1696 O.2       3 UNK        -0.5102 
     57 CA         33.7351  -49.9663  -54.8824 C.3       3 UNK         0.0241 
     58 CB         33.2227  -49.6389  -56.2946 C.3       3 UNK        -0.1971 
     59 N          34.8162  -49.0376  -54.5429 N.am      3 UNK        -0.4139 
     60 C          35.7053  -49.2408  -53.5585 C.2       2 UNK         0.5016 
     61 O          35.7724  -50.2856  -52.9083 O.2       2 UNK        -0.5319 
     62 CA         36.7002  -48.1059  -53.2409 C.3       2 UNK         0.0286 
     63 CB         38.0786  -48.4128  -53.8491 C.3       2 UNK        -0.1963 
     64 N          36.2568  -46.7906  -53.7086 N.am      2 UNK        -0.4790 
     65 C          35.2552  -46.0803  -53.1688 C.2       1 UNK         0.5024 
     66 O          34.6773  -46.4104  -52.1329 O.2       1 UNK        -0.4888 
     67 H67        34.8795  -44.9117  -58.3719 H         1 UNK         0.0892 
     68 H68        36.2628  -44.1414  -57.5924 H         1 UNK         0.0892 
     69 H69        36.3266  -45.8558  -58.0090 H         1 UNK         0.0892 
     70 H70        35.9185  -43.8082  -55.4024 H         1 UNK         0.3107 
     71 H71        33.7352  -44.8777  -54.0156 H         1 UNK         0.0773 
     72 H72        34.7040  -43.6839  -52.0046 H         1 UNK         0.0680 
     73 H73        36.1796  -43.4162  -52.8871 H         1 UNK         0.0680 
     74 H74        32.5474  -40.7596  -52.8411 H         1 UNK         0.0650 
     75 H75        33.0891  -41.9371  -51.6745 H         1 UNK         0.0650 
     76 H76        32.2710  -44.2735  -51.7882 H         1 UNK         0.1397 
     77 H77        29.1575  -45.2240  -54.5772 H         1 UNK         0.1363 
     78 H78        31.1108  -41.4116  -54.7622 H         1 UNK         0.1355 
     79 H79        29.5673  -42.0222  -56.4907 H         1 UNK         0.0707 
     80 H80        29.1119  -43.7030  -56.6729 H         1 UNK         0.0707 
     81 H81        25.7865  -41.2827  -56.5936 H         1 UNK         0.1034 
     82 H82        27.3412  -40.9136  -57.2467 H         1 UNK         0.1034 
     83 H83        25.5580  -42.2859  -58.6366 H         1 UNK         0.0482 
     84 H84        27.2754  -40.9322  -59.7821 H         1 UNK         0.3460 
     85 H85        28.5658  -41.8308  -60.5345 H         1 UNK         0.3460 
     86 H86        26.3794  -44.3666  -56.7600 H         1 UNK         0.2989 
     87 H87        24.9248  -46.1815  -56.6011 H         1 UNK         0.0559 
     88 H88        22.9370  -46.5201  -58.0827 H         1 UNK         0.0848 
     89 H89        23.7382  -48.0397  -57.7149 H         1 UNK         0.0848 
     90 H90        23.9562  -47.2863  -59.2940 H         1 UNK         0.0848 
     91 H91        26.2249  -47.8480  -58.5777 H         1 UNK         0.3144 
     92 H92        28.6811  -47.8176  -58.7823 H         1 UNK         0.0727 
     93 H93        29.9484  -47.5779  -55.9983 H         1 UNK         0.0790 
     94 H94        30.2089  -46.4617  -57.3307 H         1 UNK         0.0790 
     95 H95        30.7419  -48.1286  -57.4720 H         1 UNK         0.0790 
     96 H96        28.6431  -49.5699  -56.4249 H         1 UNK         0.3215 
     97 H97        26.2784  -51.8687  -57.8561 H         1 UNK         0.0863 
     98 H98        28.0488  -53.3161  -56.8849 H         1 UNK         0.0808 
     99 H99        29.1550  -51.9493  -56.7833 H         1 UNK         0.0808 
    100 H100       28.6213  -52.5375  -58.3508 H         1 UNK         0.0808 
    101 H101       27.4128  -51.0346  -55.2391 H         1 UNK         0.3118 
    102 H102       24.2862  -49.9750  -53.9795 H         1 UNK         0.0546 
    103 H103       25.7793  -52.5539  -53.2463 H         1 UNK         0.0828 
    104 H104       24.0685  -52.4336  -53.6304 H         1 UNK         0.0828 
    105 H105       24.6931  -51.6512  -52.1890 H         1 UNK         0.0828 
    106 H106       26.9499  -50.4036  -52.8912 H         1 UNK         0.3005 
    107 H107       28.4180  -47.5911  -54.1045 H         1 UNK         0.1257 
    108 H108       27.0776  -47.3021  -51.3904 H         1 UNK         0.0775 
    109 H109       27.3335  -46.0797  -52.6032 H         1 UNK         0.0775 
    110 H110       31.5488  -46.5458  -52.0411 H         1 UNK         0.0840 
    111 H111       30.4777  -47.0209  -53.3118 H         1 UNK         0.0840 
    112 H112       29.1445  -49.1287  -51.8217 H         1 UNK         0.2987 
    113 H113       30.7507  -50.6493  -52.0108 H         1 UNK         0.0785 
    114 H114       29.0537  -52.4462  -52.3970 H         1 UNK         0.0798 
    115 H115       30.6801  -53.0849  -52.5618 H         1 UNK         0.0798 
    116 H116       29.7121  -52.7534  -53.9982 H         1 UNK         0.0798 
    117 H117       31.9009  -51.7034  -54.4518 H         1 UNK         0.3079 
    118 H118       34.1314  -50.9840  -54.8786 H         1 UNK         0.0794 
    119 H119       32.4352  -50.3282  -56.6021 H         1 UNK         0.0786 
    120 H120       34.0215  -49.7074  -57.0332 H         1 UNK         0.0786 
    121 H121       32.8097  -48.6308  -56.3431 H         1 UNK         0.0786 
    122 H122       34.7903  -48.1325  -55.0018 H         1 UNK         0.3032 
    123 H123       36.8050  -48.0652  -52.1541 H         1 UNK         0.1094 
    124 H124       38.8136  -47.6577  -53.5697 H         1 UNK         0.0794 
    125 H125       38.4552  -49.3742  -53.4967 H         1 UNK         0.0794 
    126 H126       38.0387  -48.4584  -54.9382 H         1 UNK         0.0794 
    127 H127       36.6776  -46.4418  -54.5577 H         1 UNK         0.3016 
@<TRIPOS>BOND
     1    1    2 1    
     2    1   67 1    
     3    1   68 1    
     4    1   69 1    
     5    2    3 2    
     6    2    4 am   BACKBONE|DICT|INTERRES
     7    4    5 1    
     8    4   70 1    
     9    5    6 1    
    10    5   65 1    
    11    5   71 1    
    12    6    7 1    
    13    6   72 1    
    14    6   73 1    
    15    7    8 1    
    16    8    9 1    
    17    8   74 1    
    18    8   75 1    
    19    9   10 ar   
    20    9   14 ar   
    21   10   11 ar   
    22   10   76 1    
    23   11   12 ar   
    24   11   48 1    
    25   12   13 ar   
    26   12   77 1    
    27   13   14 ar   
    28   13   15 1    
    29   14   78 1    
    30   15   16 1    
    31   15   79 1    
    32   15   80 1    
    33   16   17 1    
    34   17   18 1    
    35   17   81 1    
    36   17   82 1    
    37   18   19 1    
    38   18   22 1    
    39   18   83 1    
    40   19   20 am   BACKBONE|DICT|INTERRES
    41   19   21 2    
    42   20   84 1    
    43   20   85 1    
    44   22   23 am   BACKBONE|DICT|INTERRES
    45   22   86 1    
    46   23   24 2    
    47   23   25 1    
    48   25   26 1    
    49   25   27 1    
    50   25   87 1    
    51   26   88 1    
    52   26   89 1    
    53   26   90 1    
    54   27   28 am   BACKBONE|DICT|INTERRES
    55   27   91 1    
    56   28   29 2    
    57   28   30 1    
    58   30   31 1    
    59   30   32 1    
    60   30   92 1    
    61   31   93 1    
    62   31   94 1    
    63   31   95 1    
    64   32   33 am   BACKBONE|DICT|INTERRES
    65   32   96 1    
    66   33   34 2    
    67   33   35 1    
    68   35   36 1    
    69   35   37 1    
    70   35   97 1    
    71   36   98 1    
    72   36   99 1    
    73   36  100 1    
    74   37   38 am   BACKBONE|DICT|INTERRES
    75   37  101 1    
    76   38   39 2    
    77   38   40 1    
    78   40   41 1    
    79   40   42 1    
    80   40  102 1    
    81   41  103 1    
    82   41  104 1    
    83   41  105 1    
    84   42   43 am   BACKBONE|DICT|INTERRES
    85   42  106 1    
    86   43   44 2    
    87   43   45 1    
    88   45   46 1    
    89   45   49 1    
    90   45  107 1    
    91   46   47 1    
    92   46  108 1    
    93   46  109 1    
    94   47   48 1    
    95   48  110 1    
    96   48  111 1    
    97   49   50 am   BACKBONE|DICT|INTERRES
    98   49  112 1    
    99   50   51 2    
   100   50   52 1    
   101   52   53 1    
   102   52   54 1    
   103   52  113 1    
   104   53  114 1    
   105   53  115 1    
   106   53  116 1    
   107   54   55 am   BACKBONE|DICT|INTERRES
   108   54  117 1    
   109   55   56 2    
   110   55   57 1    
   111   57   58 1    
   112   57   59 1    
   113   57  118 1    
   114   58  119 1    
   115   58  120 1    
   116   58  121 1    
   117   59   60 am   BACKBONE|DICT|INTERRES
   118   59  122 1    
   119   60   61 2    
   120   60   62 1    
   121   62   63 1    
   122   62   64 1    
   123   62  123 1    
   124   63  124 1    
   125   63  125 1    
   126   63  126 1    
   127   64   65 am   BACKBONE|DICT|INTERRES
   128   64  127 1    
   129   65   66 2    
@<TRIPOS>SUBSTRUCTURE
     1 UNK         1 GROUP             0       ****    0 ROOT    
