@<TRIPOS>MOLECULE
3R134
127   129    1
SMALL
USER_CHARGES


@<TRIPOS>ATOM
      1 CA         37.2690  -42.2691  -55.4065 C.3       0 UNK        -0.1968 
      2 C          36.3906  -43.4844  -55.6660 C.2       0 UNK         0.4852 
      3 O          36.3046  -43.9433  -56.8063 O.2       0 UNK        -0.5359 
      4 N          35.7330  -44.0016  -54.6203 N.am      1 UNK        -0.4300 
      5 CA         34.8837  -45.1943  -54.6666 C.3       1 UNK         0.0863 
      6 C6         34.0448  -45.3466  -53.3754 C.3       11 UNK        -0.0953 
      7 S7         32.6637  -44.1600  -53.3066 S.3       11 UNK        -0.2369 
      8 C8         31.3853  -45.1362  -54.1639 C.3       11 UNK         0.0226 
      9 C9         29.9636  -44.7465  -53.7881 C.ar      11 UNK        -0.0699 
     10 C10        29.5796  -44.6790  -52.4462 C.ar      11 UNK        -0.0804 
     11 C11        28.2488  -44.4341  -52.0988 C.ar      11 UNK        -0.0871 
     12 C12        27.2992  -44.2313  -53.1046 C.ar      11 UNK        -0.1008 
     13 C13        27.6690  -44.3043  -54.4504 C.ar      11 UNK        -0.0735 
     14 C14        29.0023  -44.5588  -54.7852 C.ar      11 UNK        -0.0945 
     15 C15        26.6120  -44.1869  -55.5380 C.3       11 UNK         0.0169 
     16 S16        26.2128  -42.4600  -55.9533 S.3       11 UNK        -0.2669 
     17 C17        27.7035  -41.8949  -56.8465 C.3       11 UNK        -0.0850 
     18 CA         27.5380  -41.9451  -58.3953 C.3       10 UNK         0.0855 
     19 C          28.6123  -41.0977  -59.1479 C.2       10 UNK         0.5543 
     20 N          29.0141  -41.4671  -60.3581 N.am      10 UNK        -0.7343 
     21 O          29.0641  -40.0699  -58.6485 O.2       10 UNK        -0.5027 
     22 N          27.3600  -43.3181  -58.9114 N.am      10 UNK        -0.4495 
     23 C          28.2756  -44.2957  -58.8785 C.2       10 UNK         0.4903 
     24 O          29.4099  -44.1684  -58.4121 O.2       10 UNK        -0.4860 
     25 CA         27.8568  -45.6356  -59.5030 C.3       9 UNK         0.0227 
     26 CB         28.0857  -45.6117  -61.0236 C.3       9 UNK        -0.1964 
     27 N          28.6381  -46.7285  -58.9224 N.am      9 UNK        -0.4231 
     28 C          28.2882  -47.4245  -57.8347 C.2       9 UNK         0.5014 
     29 O          27.2093  -47.2988  -57.2514 O.2       9 UNK        -0.5270 
     30 CA         29.3543  -48.3898  -57.2893 C.3       8 UNK         0.0284 
     31 CB         30.3060  -47.6524  -56.3355 C.3       8 UNK        -0.1977 
     32 N          28.7656  -49.5246  -56.5795 N.am      8 UNK        -0.4342 
     33 C          28.1471  -50.5550  -57.1690 C.2       8 UNK         0.5039 
     34 O          28.0218  -50.6718  -58.3892 O.2       8 UNK        -0.5547 
     35 CA         27.5934  -51.6537  -56.2513 C.3       7 UNK         0.0281 
     36 CB         28.7264  -52.5793  -55.7767 C.3       7 UNK        -0.1963 
     37 N          26.9129  -51.0977  -55.0806 N.am      7 UNK        -0.4444 
     38 C          25.5862  -51.0950  -54.8957 C.2       7 UNK         0.5104 
     39 O          24.7796  -51.5184  -55.7248 O.2       7 UNK        -0.5100 
     40 CA         25.0531  -50.5729  -53.5469 C.3       6 UNK         0.0396 
     41 CB         24.6160  -51.7494  -52.6586 C.3       6 UNK        -0.1801 
     42 N          26.0231  -49.7617  -52.8081 N.am      6 UNK        -0.4747 
     43 C          26.2712  -48.4667  -53.0487 C.2       6 UNK         0.5012 
     44 O          25.6654  -47.8025  -53.8891 O.2       6 UNK        -0.5003 
     45 CA         27.3775  -47.7965  -52.2055 C.3       5 UNK         0.0782 
     46 C46        26.7335  -47.0539  -51.0033 C.3       11 UNK        -0.0868 
     47 S47        27.9383  -46.1580  -49.9629 S.3       11 UNK        -0.2515 
     48 C48        27.8309  -44.4670  -50.6376 C.3       11 UNK         0.0199 
     49 N          28.4569  -48.7030  -51.7803 N.am      5 UNK        -0.4607 
     50 C          29.2164  -49.4606  -52.5823 C.2       4 UNK         0.5031 
     51 O          29.0174  -49.5926  -53.7918 O.2       4 UNK        -0.5119 
     52 CA         30.3421  -50.2567  -51.8987 C.3       4 UNK         0.0263 
     53 CB         29.7599  -51.4951  -51.1963 C.3       4 UNK        -0.1967 
     54 N          31.3779  -50.6964  -52.8391 N.am      4 UNK        -0.4237 
     55 C          32.2059  -49.8857  -53.5107 C.2       3 UNK         0.4908 
     56 O          32.2381  -48.6605  -53.3700 O.2       3 UNK        -0.5102 
     57 CA         33.1587  -50.5615  -54.5075 C.3       3 UNK         0.0241 
     58 CB         32.3903  -51.3053  -55.6203 C.3       3 UNK        -0.1971 
     59 N          34.0250  -49.5428  -55.0961 N.am      3 UNK        -0.4139 
     60 C          35.2197  -49.7529  -55.6615 C.2       2 UNK         0.5016 
     61 O          35.7497  -50.8625  -55.7373 O.2       2 UNK        -0.5319 
     62 CA         35.9485  -48.5367  -56.2640 C.3       2 UNK         0.0286 
     63 CB         35.9901  -48.6486  -57.7980 C.3       2 UNK        -0.1963 
     64 N          35.3206  -47.2597  -55.9074 N.am      2 UNK        -0.4790 
     65 C          35.7249  -46.4629  -54.9098 C.2       1 UNK         0.5024 
     66 O          36.6894  -46.7047  -54.1805 O.2       1 UNK        -0.4888 
     67 H67        36.9351  -41.4283  -56.0139 H         1 UNK         0.0892 
     68 H68        37.2436  -41.9628  -54.3609 H         1 UNK         0.0892 
     69 H69        38.3029  -42.4908  -55.6697 H         1 UNK         0.0892 
     70 H70        35.8511  -43.5883  -53.7066 H         1 UNK         0.3107 
     71 H71        34.1999  -45.0780  -55.5106 H         1 UNK         0.0773 
     72 H72        33.6410  -46.3557  -53.2778 H         1 UNK         0.0680 
     73 H73        34.6697  -45.2024  -52.4921 H         1 UNK         0.0680 
     74 H74        31.5002  -46.1930  -53.9261 H         1 UNK         0.0650 
     75 H75        31.5451  -45.0387  -55.2384 H         1 UNK         0.0650 
     76 H76        30.3089  -44.8646  -51.6693 H         1 UNK         0.1397 
     77 H77        26.2636  -44.0589  -52.8447 H         1 UNK         0.1363 
     78 H78        29.2839  -44.6489  -55.8250 H         1 UNK         0.1355 
     79 H79        26.9239  -44.7219  -56.4332 H         1 UNK         0.0707 
     80 H80        25.6994  -44.6838  -55.2050 H         1 UNK         0.0707 
     81 H81        27.8797  -40.8700  -56.5154 H         1 UNK         0.1034 
     82 H82        28.5825  -42.4539  -56.5286 H         1 UNK         0.1034 
     83 H83        26.6026  -41.4347  -58.6277 H         1 UNK         0.0482 
     84 H84        28.6447  -42.3003  -60.7859 H         1 UNK         0.3460 
     85 H85        29.6987  -40.9089  -60.8434 H         1 UNK         0.3460 
     86 H86        26.4620  -43.5070  -59.3334 H         1 UNK         0.2989 
     87 H87        26.7939  -45.7998  -59.3121 H         1 UNK         0.0559 
     88 H88        29.1297  -45.4182  -61.2743 H         1 UNK         0.0848 
     89 H89        27.4869  -44.8341  -61.4994 H         1 UNK         0.0848 
     90 H90        27.8019  -46.5596  -61.4815 H         1 UNK         0.0848 
     91 H91        29.5695  -46.8505  -59.2937 H         1 UNK         0.3144 
     92 H92        29.9359  -48.7768  -58.1289 H         1 UNK         0.0727 
     93 H93        31.1289  -48.2918  -56.0192 H         1 UNK         0.0790 
     94 H94        29.7836  -47.3170  -55.4388 H         1 UNK         0.0790 
     95 H95        30.7424  -46.7747  -56.8136 H         1 UNK         0.0790 
     96 H96        28.8200  -49.4992  -55.5624 H         1 UNK         0.3215 
     97 H97        26.9001  -52.2548  -56.8439 H         1 UNK         0.0863 
     98 H98        29.4267  -52.0565  -55.1254 H         1 UNK         0.0808 
     99 H99        29.2930  -52.9733  -56.6217 H         1 UNK         0.0808 
    100 H100       28.3323  -53.4323  -55.2243 H         1 UNK         0.0808 
    101 H101       27.5032  -50.6556  -54.3832 H         1 UNK         0.3118 
    102 H102       24.1711  -49.9640  -53.7569 H         1 UNK         0.0546 
    103 H103       24.1745  -51.4003  -51.7251 H         1 UNK         0.0828 
    104 H104       25.4533  -52.4036  -52.4120 H         1 UNK         0.0828 
    105 H105       23.8640  -52.3598  -53.1609 H         1 UNK         0.0828 
    106 H106       26.5606  -50.2273  -52.0909 H         1 UNK         0.3005 
    107 H107       27.8427  -47.0602  -52.8632 H         1 UNK         0.1257 
    108 H108       26.2097  -47.7632  -50.3595 H         1 UNK         0.0775 
    109 H109       25.9746  -46.3482  -51.3473 H         1 UNK         0.0775 
    110 H110       26.8162  -44.0868  -50.5091 H         1 UNK         0.0840 
    111 H111       28.4816  -43.8093  -50.0596 H         1 UNK         0.0840 
    112 H112       28.6832  -48.6630  -50.7968 H         1 UNK         0.2987 
    113 H113       30.8145  -49.6121  -51.1544 H         1 UNK         0.0785 
    114 H114       29.0168  -51.2146  -50.4487 H         1 UNK         0.0798 
    115 H115       30.5360  -52.0585  -50.6776 H         1 UNK         0.0798 
    116 H116       29.2726  -52.1683  -51.9033 H         1 UNK         0.0798 
    117 H117       31.4127  -51.6862  -53.0320 H         1 UNK         0.3079 
    118 H118       33.7757  -51.2706  -53.9515 H         1 UNK         0.0794 
    119 H119       31.8286  -52.1475  -55.2170 H         1 UNK         0.0786 
    120 H120       33.0677  -51.7124  -56.3710 H         1 UNK         0.0786 
    121 H121       31.6826  -50.6520  -56.1316 H         1 UNK         0.0786 
    122 H122       33.6847  -48.5970  -54.9825 H         1 UNK         0.3032 
    123 H123       36.9764  -48.5637  -55.8946 H         1 UNK         0.1094 
    124 H124       34.9892  -48.6548  -58.2315 H         1 UNK         0.0794 
    125 H125       36.5432  -47.8198  -58.2406 H         1 UNK         0.0794 
    126 H126       36.4858  -49.5689  -58.1103 H         1 UNK         0.0794 
    127 H127       34.5350  -46.9725  -56.4744 H         1 UNK         0.3016 
@<TRIPOS>BOND
     1    1    2 1    
     2    1   67 1    
     3    1   68 1    
     4    1   69 1    
     5    2    3 2    
     6    2    4 am   BACKBONE|DICT|INTERRES
     7    4    5 1    
     8    4   70 1    
     9    5    6 1    
    10    5   65 1    
    11    5   71 1    
    12    6    7 1    
    13    6   72 1    
    14    6   73 1    
    15    7    8 1    
    16    8    9 1    
    17    8   74 1    
    18    8   75 1    
    19    9   10 ar   
    20    9   14 ar   
    21   10   11 ar   
    22   10   76 1    
    23   11   12 ar   
    24   11   48 1    
    25   12   13 ar   
    26   12   77 1    
    27   13   14 ar   
    28   13   15 1    
    29   14   78 1    
    30   15   16 1    
    31   15   79 1    
    32   15   80 1    
    33   16   17 1    
    34   17   18 1    
    35   17   81 1    
    36   17   82 1    
    37   18   19 1    
    38   18   22 1    
    39   18   83 1    
    40   19   20 am   BACKBONE|DICT|INTERRES
    41   19   21 2    
    42   20   84 1    
    43   20   85 1    
    44   22   23 am   BACKBONE|DICT|INTERRES
    45   22   86 1    
    46   23   24 2    
    47   23   25 1    
    48   25   26 1    
    49   25   27 1    
    50   25   87 1    
    51   26   88 1    
    52   26   89 1    
    53   26   90 1    
    54   27   28 am   BACKBONE|DICT|INTERRES
    55   27   91 1    
    56   28   29 2    
    57   28   30 1    
    58   30   31 1    
    59   30   32 1    
    60   30   92 1    
    61   31   93 1    
    62   31   94 1    
    63   31   95 1    
    64   32   33 am   BACKBONE|DICT|INTERRES
    65   32   96 1    
    66   33   34 2    
    67   33   35 1    
    68   35   36 1    
    69   35   37 1    
    70   35   97 1    
    71   36   98 1    
    72   36   99 1    
    73   36  100 1    
    74   37   38 am   BACKBONE|DICT|INTERRES
    75   37  101 1    
    76   38   39 2    
    77   38   40 1    
    78   40   41 1    
    79   40   42 1    
    80   40  102 1    
    81   41  103 1    
    82   41  104 1    
    83   41  105 1    
    84   42   43 am   BACKBONE|DICT|INTERRES
    85   42  106 1    
    86   43   44 2    
    87   43   45 1    
    88   45   46 1    
    89   45   49 1    
    90   45  107 1    
    91   46   47 1    
    92   46  108 1    
    93   46  109 1    
    94   47   48 1    
    95   48  110 1    
    96   48  111 1    
    97   49   50 am   BACKBONE|DICT|INTERRES
    98   49  112 1    
    99   50   51 2    
   100   50   52 1    
   101   52   53 1    
   102   52   54 1    
   103   52  113 1    
   104   53  114 1    
   105   53  115 1    
   106   53  116 1    
   107   54   55 am   BACKBONE|DICT|INTERRES
   108   54  117 1    
   109   55   56 2    
   110   55   57 1    
   111   57   58 1    
   112   57   59 1    
   113   57  118 1    
   114   58  119 1    
   115   58  120 1    
   116   58  121 1    
   117   59   60 am   BACKBONE|DICT|INTERRES
   118   59  122 1    
   119   60   61 2    
   120   60   62 1    
   121   62   63 1    
   122   62   64 1    
   123   62  123 1    
   124   63  124 1    
   125   63  125 1    
   126   63  126 1    
   127   64   65 am   BACKBONE|DICT|INTERRES
   128   64  127 1    
   129   65   66 2    
@<TRIPOS>SUBSTRUCTURE
     1 UNK         1 GROUP             0       ****    0 ROOT    
