@<TRIPOS>MOLECULE
3R134
127   129    1
SMALL
USER_CHARGES


@<TRIPOS>ATOM
      1 CA         36.1298  -46.2723  -51.9355 C.3       0 UNK        -0.1968 
      2 C          34.9281  -46.0043  -52.8292 C.2       0 UNK         0.4852 
      3 O          34.5489  -46.8709  -53.6148 O.2       0 UNK        -0.5359 
      4 N          34.3338  -44.8093  -52.7201 N.am      1 UNK        -0.4300 
      5 CA         33.1456  -44.3938  -53.4749 C.3       1 UNK         0.0863 
      6 C6         32.9128  -42.8646  -53.3713 C.3       11 UNK        -0.0953 
      7 S7         34.2472  -41.9294  -54.1961 S.3       11 UNK        -0.2369 
      8 C8         33.4170  -41.2809  -55.6867 C.3       11 UNK         0.0226 
      9 C9         32.6656  -42.3617  -56.4522 C.ar      11 UNK        -0.0699 
     10 C10        33.3614  -43.4108  -57.0601 C.ar      11 UNK        -0.0804 
     11 C11        32.6686  -44.4343  -57.7116 C.ar      11 UNK        -0.0871 
     12 C12        31.2730  -44.3855  -57.7712 C.ar      11 UNK        -0.1008 
     13 C13        30.5596  -43.3564  -57.1523 C.ar      11 UNK        -0.0735 
     14 C14        31.2685  -42.3310  -56.5146 C.ar      11 UNK        -0.0945 
     15 C15        29.0320  -43.4206  -57.1936 C.3       11 UNK         0.0169 
     16 S16        28.1322  -42.3758  -55.9971 S.3       11 UNK        -0.2669 
     17 C17        28.6716  -43.0509  -54.3839 C.3       11 UNK        -0.0850 
     18 CA         27.7027  -44.0644  -53.7186 C.3       10 UNK         0.0855 
     19 C          26.2779  -43.4869  -53.4692 C.2       10 UNK         0.5543 
     20 N          25.2189  -44.0559  -54.0363 N.am      10 UNK        -0.7343 
     21 O          26.1320  -42.5161  -52.7307 O.2       10 UNK        -0.5027 
     22 N          27.7116  -45.3644  -54.4043 N.am      10 UNK        -0.4495 
     23 C          27.4867  -46.5369  -53.7987 C.2       10 UNK         0.4903 
     24 O          27.4145  -46.6668  -52.5751 O.2       10 UNK        -0.4860 
     25 CA         27.3477  -47.7926  -54.6806 C.3       9 UNK         0.0227 
     26 CB         26.2359  -48.7336  -54.1720 C.3       9 UNK        -0.1964 
     27 N          27.1821  -47.5461  -56.1181 N.am      9 UNK        -0.4231 
     28 C          26.1901  -46.8985  -56.7481 C.2       9 UNK         0.5014 
     29 O          25.3040  -46.2753  -56.1618 O.2       9 UNK        -0.5270 
     30 CA         26.1760  -46.9535  -58.2861 C.3       8 UNK         0.0284 
     31 CB         26.8831  -45.7329  -58.8958 C.3       8 UNK        -0.1977 
     32 N          26.7924  -48.1786  -58.8079 N.am      8 UNK        -0.4342 
     33 C          26.2353  -49.0011  -59.7073 C.2       8 UNK         0.5039 
     34 O          25.1444  -48.7973  -60.2424 O.2       8 UNK        -0.5547 
     35 CA         27.0219  -50.2746  -60.0824 C.3       7 UNK         0.0281 
     36 CB         27.8451  -50.0384  -61.3590 C.3       7 UNK        -0.1963 
     37 N          27.9107  -50.7520  -59.0185 N.am      7 UNK        -0.4444 
     38 C          27.5011  -51.2122  -57.8288 C.2       7 UNK         0.5104 
     39 O          26.3176  -51.3926  -57.5413 O.2       7 UNK        -0.5100 
     40 CA         28.5761  -51.5005  -56.7625 C.3       6 UNK         0.0396 
     41 CB         28.7889  -53.0154  -56.6159 C.3       6 UNK        -0.1801 
     42 N          29.8874  -50.8555  -56.9308 N.am      6 UNK        -0.4747 
     43 C          30.1411  -49.5499  -57.1014 C.2       6 UNK         0.5012 
     44 O          29.2708  -48.7215  -57.3767 O.2       6 UNK        -0.5003 
     45 CA         31.6003  -49.0894  -56.8829 C.3       5 UNK         0.0782 
     46 C46        31.7715  -47.5813  -57.1884 C.3       11 UNK        -0.0868 
     47 S47        33.5088  -47.0286  -57.1907 S.3       11 UNK        -0.2515 
     48 C48        33.4230  -45.6045  -58.3290 C.3       11 UNK         0.0199 
     49 N          32.0155  -49.4197  -55.5141 N.am      5 UNK        -0.4607 
     50 C          32.4284  -50.6282  -55.1114 C.2       4 UNK         0.5031 
     51 O          32.5927  -51.5769  -55.8799 O.2       4 UNK        -0.5119 
     52 CA         32.6269  -50.8418  -53.6023 C.3       4 UNK         0.0263 
     53 CB         34.0474  -50.4522  -53.1696 C.3       4 UNK        -0.1967 
     54 N          31.6421  -50.1380  -52.7739 N.am      4 UNK        -0.4237 
     55 C          30.3341  -50.4228  -52.7255 C.2       3 UNK         0.4908 
     56 O          29.7974  -51.2706  -53.4379 O.2       3 UNK        -0.5102 
     57 CA         29.4681  -49.6759  -51.6925 C.3       3 UNK         0.0241 
     58 CB         29.5909  -50.3351  -50.3051 C.3       3 UNK        -0.1971 
     59 N          29.6626  -48.2213  -51.6012 N.am      3 UNK        -0.4139 
     60 C          30.7533  -47.5338  -51.2382 C.2       2 UNK         0.5016 
     61 O          31.8451  -48.0433  -50.9728 O.2       2 UNK        -0.5319 
     62 CA         30.5814  -46.0132  -51.1098 C.3       2 UNK         0.0286 
     63 CB         30.4543  -45.6065  -49.6333 C.3       2 UNK        -0.1963 
     64 N          31.7053  -45.3000  -51.7114 N.am      2 UNK        -0.4790 
     65 C          31.8903  -45.1699  -53.0321 C.2       1 UNK         0.5024 
     66 O          31.1200  -45.6284  -53.8764 O.2       1 UNK        -0.4888 
     67 H67        37.0067  -46.4936  -52.5431 H         1 UNK         0.0892 
     68 H68        35.9335  -47.1312  -51.2942 H         1 UNK         0.0892 
     69 H69        36.3644  -45.4195  -51.2987 H         1 UNK         0.0892 
     70 H70        34.7111  -44.1224  -52.0833 H         1 UNK         0.3107 
     71 H71        33.3116  -44.6482  -54.5239 H         1 UNK         0.0773 
     72 H72        32.8701  -42.5512  -52.3267 H         1 UNK         0.0680 
     73 H73        31.9517  -42.5802  -53.8014 H         1 UNK         0.0680 
     74 H74        32.7424  -40.4768  -55.3887 H         1 UNK         0.0650 
     75 H75        34.1641  -40.8286  -56.3402 H         1 UNK         0.0650 
     76 H76        34.4406  -43.4446  -56.9961 H         1 UNK         0.1397 
     77 H77        30.7314  -45.1706  -58.2790 H         1 UNK         0.1363 
     78 H78        30.7384  -41.5193  -56.0375 H         1 UNK         0.1355 
     79 H79        28.7220  -44.4508  -57.0222 H         1 UNK         0.0707 
     80 H80        28.7015  -43.1555  -58.1987 H         1 UNK         0.0707 
     81 H81        29.6555  -43.5064  -54.4907 H         1 UNK         0.1034 
     82 H82        28.8233  -42.2036  -53.7129 H         1 UNK         0.1034 
     83 H83        28.1073  -44.2310  -52.7188 H         1 UNK         0.0482 
     84 H84        25.3255  -44.8445  -54.6647 H         1 UNK         0.3460 
     85 H85        24.3026  -43.6760  -53.8607 H         1 UNK         0.3460 
     86 H86        27.7439  -45.3382  -55.4109 H         1 UNK         0.2989 
     87 H87        28.2953  -48.3247  -54.5824 H         1 UNK         0.0559 
     88 H88        26.4066  -49.0328  -53.1377 H         1 UNK         0.0848 
     89 H89        26.1879  -49.6465  -54.7659 H         1 UNK         0.0848 
     90 H90        25.2560  -48.2567  -54.2116 H         1 UNK         0.0848 
     91 H91        27.9216  -47.9605  -56.6844 H         1 UNK         0.3144 
     92 H92        25.1240  -46.9129  -58.5762 H         1 UNK         0.0727 
     93 H93        26.6913  -45.6676  -59.9669 H         1 UNK         0.0790 
     94 H94        27.9631  -45.7850  -58.7589 H         1 UNK         0.0790 
     95 H95        26.5286  -44.8034  -58.4475 H         1 UNK         0.0790 
     96 H96        27.6978  -48.4382  -58.4272 H         1 UNK         0.3215 
     97 H97        26.2913  -51.0608  -60.2853 H         1 UNK         0.0863 
     98 H98        28.3423  -50.9517  -61.6866 H         1 UNK         0.0808 
     99 H99        28.6078  -49.2724  -61.2126 H         1 UNK         0.0808 
    100 H100       27.2058  -49.7083  -62.1792 H         1 UNK         0.0808 
    101 H101       28.9036  -50.6388  -59.1619 H         1 UNK         0.3118 
    102 H102       28.1742  -51.1287  -55.8179 H         1 UNK         0.0546 
    103 H103       27.8423  -53.5326  -56.4524 H         1 UNK         0.0828 
    104 H104       29.4290  -53.2435  -55.7631 H         1 UNK         0.0828 
    105 H105       29.2472  -53.4456  -57.5071 H         1 UNK         0.0828 
    106 H106       30.6878  -51.4348  -56.6987 H         1 UNK         0.3005 
    107 H107       32.2187  -49.6456  -57.5914 H         1 UNK         0.1257 
    108 H108       31.2152  -46.9752  -56.4699 H         1 UNK         0.0775 
    109 H109       31.3555  -47.3625  -58.1732 H         1 UNK         0.0775 
    110 H110       34.4391  -45.3001  -58.5845 H         1 UNK         0.0840 
    111 H111       32.9547  -45.9053  -59.2674 H         1 UNK         0.0840 
    112 H112       31.9088  -48.6892  -54.8250 H         1 UNK         0.2987 
    113 H113       32.5043  -51.9104  -53.4125 H         1 UNK         0.0785 
    114 H114       34.2274  -49.3863  -53.2989 H         1 UNK         0.0798 
    115 H115       34.7959  -50.9836  -53.7589 H         1 UNK         0.0798 
    116 H116       34.2248  -50.6969  -52.1222 H         1 UNK         0.0798 
    117 H117       31.9833  -49.4146  -52.1416 H         1 UNK         0.3079 
    118 H118       28.4345  -49.8045  -52.0165 H         1 UNK         0.0794 
    119 H119       30.5970  -50.2396  -49.8953 H         1 UNK         0.0786 
    120 H120       29.3624  -51.4005  -50.3577 H         1 UNK         0.0786 
    121 H121       28.8959  -49.8905  -49.5926 H         1 UNK         0.0786 
    122 H122       28.8308  -47.6773  -51.8208 H         1 UNK         0.3032 
    123 H123       29.6702  -45.7091  -51.6268 H         1 UNK         0.1094 
    124 H124       29.6037  -46.1036  -49.1647 H         1 UNK         0.0794 
    125 H125       30.2982  -44.5326  -49.5286 H         1 UNK         0.0794 
    126 H126       31.3438  -45.8753  -49.0617 H         1 UNK         0.0794 
    127 H127       32.4133  -44.9496  -51.0832 H         1 UNK         0.3016 
@<TRIPOS>BOND
     1    1    2 1    
     2    1   67 1    
     3    1   68 1    
     4    1   69 1    
     5    2    3 2    
     6    2    4 am   BACKBONE|DICT|INTERRES
     7    4    5 1    
     8    4   70 1    
     9    5    6 1    
    10    5   65 1    
    11    5   71 1    
    12    6    7 1    
    13    6   72 1    
    14    6   73 1    
    15    7    8 1    
    16    8    9 1    
    17    8   74 1    
    18    8   75 1    
    19    9   10 ar   
    20    9   14 ar   
    21   10   11 ar   
    22   10   76 1    
    23   11   12 ar   
    24   11   48 1    
    25   12   13 ar   
    26   12   77 1    
    27   13   14 ar   
    28   13   15 1    
    29   14   78 1    
    30   15   16 1    
    31   15   79 1    
    32   15   80 1    
    33   16   17 1    
    34   17   18 1    
    35   17   81 1    
    36   17   82 1    
    37   18   19 1    
    38   18   22 1    
    39   18   83 1    
    40   19   20 am   BACKBONE|DICT|INTERRES
    41   19   21 2    
    42   20   84 1    
    43   20   85 1    
    44   22   23 am   BACKBONE|DICT|INTERRES
    45   22   86 1    
    46   23   24 2    
    47   23   25 1    
    48   25   26 1    
    49   25   27 1    
    50   25   87 1    
    51   26   88 1    
    52   26   89 1    
    53   26   90 1    
    54   27   28 am   BACKBONE|DICT|INTERRES
    55   27   91 1    
    56   28   29 2    
    57   28   30 1    
    58   30   31 1    
    59   30   32 1    
    60   30   92 1    
    61   31   93 1    
    62   31   94 1    
    63   31   95 1    
    64   32   33 am   BACKBONE|DICT|INTERRES
    65   32   96 1    
    66   33   34 2    
    67   33   35 1    
    68   35   36 1    
    69   35   37 1    
    70   35   97 1    
    71   36   98 1    
    72   36   99 1    
    73   36  100 1    
    74   37   38 am   BACKBONE|DICT|INTERRES
    75   37  101 1    
    76   38   39 2    
    77   38   40 1    
    78   40   41 1    
    79   40   42 1    
    80   40  102 1    
    81   41  103 1    
    82   41  104 1    
    83   41  105 1    
    84   42   43 am   BACKBONE|DICT|INTERRES
    85   42  106 1    
    86   43   44 2    
    87   43   45 1    
    88   45   46 1    
    89   45   49 1    
    90   45  107 1    
    91   46   47 1    
    92   46  108 1    
    93   46  109 1    
    94   47   48 1    
    95   48  110 1    
    96   48  111 1    
    97   49   50 am   BACKBONE|DICT|INTERRES
    98   49  112 1    
    99   50   51 2    
   100   50   52 1    
   101   52   53 1    
   102   52   54 1    
   103   52  113 1    
   104   53  114 1    
   105   53  115 1    
   106   53  116 1    
   107   54   55 am   BACKBONE|DICT|INTERRES
   108   54  117 1    
   109   55   56 2    
   110   55   57 1    
   111   57   58 1    
   112   57   59 1    
   113   57  118 1    
   114   58  119 1    
   115   58  120 1    
   116   58  121 1    
   117   59   60 am   BACKBONE|DICT|INTERRES
   118   59  122 1    
   119   60   61 2    
   120   60   62 1    
   121   62   63 1    
   122   62   64 1    
   123   62  123 1    
   124   63  124 1    
   125   63  125 1    
   126   63  126 1    
   127   64   65 am   BACKBONE|DICT|INTERRES
   128   64  127 1    
   129   65   66 2    
@<TRIPOS>SUBSTRUCTURE
     1 UNK         1 GROUP             0       ****    0 ROOT    
