@<TRIPOS>MOLECULE
3R134
127   129    1
SMALL
USER_CHARGES


@<TRIPOS>ATOM
      1 CA         38.5153  -44.7530  -51.8986 C.3       0 UNK        -0.1968 
      2 C          37.4596  -44.4558  -52.9537 C.2       0 UNK         0.4852 
      3 O          37.7652  -43.8128  -53.9596 O.2       0 UNK        -0.5359 
      4 N          36.2205  -44.9103  -52.7273 N.am      1 UNK        -0.4300 
      5 CA         35.0884  -44.7611  -53.6482 C.3       1 UNK         0.0863 
      6 C6         33.7339  -45.0447  -52.9527 C.3       11 UNK        -0.0953 
      7 S7         33.4559  -43.9777  -51.4983 S.3       11 UNK        -0.2369 
      8 C8         32.3759  -42.6776  -52.1779 C.3       11 UNK         0.0226 
      9 C9         30.9762  -43.1893  -52.4916 C.ar      11 UNK        -0.0699 
     10 C10        30.1501  -43.6522  -51.4626 C.ar      11 UNK        -0.0804 
     11 C11        28.8650  -44.1291  -51.7389 C.ar      11 UNK        -0.0871 
     12 C12        28.4003  -44.1247  -53.0574 C.ar      11 UNK        -0.1008 
     13 C13        29.2105  -43.6448  -54.0926 C.ar      11 UNK        -0.0735 
     14 C14        30.4985  -43.1836  -53.8057 C.ar      11 UNK        -0.0945 
     15 C15        28.6905  -43.6259  -55.5202 C.3       11 UNK         0.0169 
     16 S16        29.1345  -45.1617  -56.3798 S.3       11 UNK        -0.2669 
     17 C17        30.4131  -44.6300  -57.5742 C.3       11 UNK        -0.0850 
     18 CA         29.9091  -44.6522  -59.0450 C.3       10 UNK         0.0855 
     19 C          31.0402  -44.2268  -60.0249 C.2       10 UNK         0.5543 
     20 N          31.5205  -45.0961  -60.9050 N.am      10 UNK        -0.7343 
     21 O          31.4901  -43.0851  -59.9793 O.2       10 UNK        -0.5027 
     22 N          29.2422  -45.9263  -59.3566 N.am      10 UNK        -0.4495 
     23 C          28.4417  -46.1767  -60.4003 C.2       10 UNK         0.4903 
     24 O          28.2597  -45.4027  -61.3397 O.2       10 UNK        -0.4860 
     25 CA         27.6788  -47.5148  -60.3546 C.3       9 UNK         0.0227 
     26 CB         28.5092  -48.6336  -61.0030 C.3       9 UNK        -0.1964 
     27 N          27.3270  -47.9008  -58.9834 N.am      9 UNK        -0.4231 
     28 C          26.4648  -47.2481  -58.1940 C.2       9 UNK         0.5014 
     29 O          25.7163  -46.3549  -58.5962 O.2       9 UNK        -0.5270 
     30 CA         26.4712  -47.6407  -56.7028 C.3       8 UNK         0.0284 
     31 CB         25.6404  -46.6754  -55.8362 C.3       8 UNK        -0.1977 
     32 N          26.0397  -49.0124  -56.4331 N.am      8 UNK        -0.4342 
     33 C          26.7146  -50.1284  -56.7397 C.2       8 UNK         0.5039 
     34 O          27.7351  -50.1523  -57.4321 O.2       8 UNK        -0.5547 
     35 CA         26.1885  -51.4138  -56.0900 C.3       7 UNK         0.0281 
     36 CB         27.0443  -52.6532  -56.4156 C.3       7 UNK        -0.1963 
     37 N          26.1574  -51.2072  -54.6425 N.am      7 UNK        -0.4444 
     38 C          25.1908  -51.6310  -53.8188 C.2       7 UNK         0.5104 
     39 O          24.2057  -52.2650  -54.1988 O.2       7 UNK        -0.5100 
     40 CA         25.3339  -51.3144  -52.3159 C.3       6 UNK         0.0396 
     41 CB         25.7224  -52.5839  -51.5404 C.3       6 UNK        -0.1801 
     42 N          26.3090  -50.2625  -52.0160 N.am      6 UNK        -0.4747 
     43 C          26.1297  -48.9513  -52.2357 C.2       6 UNK         0.5012 
     44 O          25.0853  -48.4731  -52.6780 O.2       6 UNK        -0.5003 
     45 CA         27.3244  -48.0196  -51.9239 C.3       5 UNK         0.0782 
     46 C46        27.1246  -47.3508  -50.5406 C.3       11 UNK        -0.0868 
     47 S47        28.5113  -46.2762  -50.0323 S.3       11 UNK        -0.2515 
     48 C48        27.9827  -44.6292  -50.6044 C.3       11 UNK         0.0199 
     49 N          28.6334  -48.6832  -52.0382 N.am      5 UNK        -0.4607 
     50 C          29.1143  -49.2399  -53.1558 C.2       4 UNK         0.5031 
     51 O          28.4594  -49.3622  -54.1908 O.2       4 UNK        -0.5119 
     52 CA         30.5348  -49.8184  -53.0913 C.3       4 UNK         0.0263 
     53 CB         30.4854  -51.3041  -52.6981 C.3       4 UNK        -0.1967 
     54 N          31.1979  -49.6863  -54.3897 N.am      4 UNK        -0.4237 
     55 C          31.6702  -48.5310  -54.8715 C.2       3 UNK         0.4908 
     56 O          31.7121  -47.4800  -54.2257 O.2       3 UNK        -0.5102 
     57 CA         32.1747  -48.5510  -56.3190 C.3       3 UNK         0.0241 
     58 CB         31.0046  -48.5678  -57.3211 C.3       3 UNK        -0.1971 
     59 N          32.9948  -47.3616  -56.5176 N.am      3 UNK        -0.4139 
     60 C          33.9961  -47.2291  -57.3926 C.2       2 UNK         0.5016 
     61 O          34.2870  -48.0815  -58.2329 O.2       2 UNK        -0.5319 
     62 CA         34.8306  -45.9349  -57.3170 C.3       2 UNK         0.0286 
     63 CB         34.4464  -44.9693  -58.4495 C.3       2 UNK        -0.1963 
     64 N          34.7411  -45.2264  -56.0329 N.am      2 UNK        -0.4790 
     65 C          35.2638  -45.6717  -54.8815 C.2       1 UNK         0.5024 
     66 O          35.8410  -46.7565  -54.7701 O.2       1 UNK        -0.4888 
     67 H67        38.1067  -45.3166  -51.0600 H         1 UNK         0.0892 
     68 H68        39.3272  -45.3347  -52.3343 H         1 UNK         0.0892 
     69 H69        38.9311  -43.8233  -51.5113 H         1 UNK         0.0892 
     70 H70        36.0294  -45.4407  -51.8897 H         1 UNK         0.3107 
     71 H71        35.0806  -43.7251  -53.9944 H         1 UNK         0.0773 
     72 H72        32.9053  -44.9201  -53.6520 H         1 UNK         0.0680 
     73 H73        33.6856  -46.0828  -52.6176 H         1 UNK         0.0680 
     74 H74        32.8468  -42.2486  -53.0637 H         1 UNK         0.0650 
     75 H75        32.3003  -41.8697  -51.4489 H         1 UNK         0.0650 
     76 H76        30.5152  -43.6544  -50.4445 H         1 UNK         0.1397 
     77 H77        27.4072  -44.4902  -53.2805 H         1 UNK         0.1363 
     78 H78        31.1268  -42.8214  -54.6076 H         1 UNK         0.1355 
     79 H79        29.0668  -42.7531  -56.0552 H         1 UNK         0.0707 
     80 H80        27.6037  -43.5305  -55.5191 H         1 UNK         0.0707 
     81 H81        31.2624  -45.3042  -57.4607 H         1 UNK         0.1034 
     82 H82        30.7834  -43.6388  -57.3071 H         1 UNK         0.1034 
     83 H83        29.1418  -43.8807  -59.1325 H         1 UNK         0.0482 
     84 H84        31.1432  -46.0281  -60.9563 H         1 UNK         0.3460 
     85 H85        32.2487  -44.8080  -61.5388 H         1 UNK         0.3460 
     86 H86        29.2989  -46.6255  -58.6330 H         1 UNK         0.2989 
     87 H87        26.7542  -47.3958  -60.9230 H         1 UNK         0.0559 
     88 H88        29.4398  -48.8139  -60.4631 H         1 UNK         0.0848 
     89 H89        28.7712  -48.3794  -62.0310 H         1 UNK         0.0848 
     90 H90        27.9541  -49.5714  -61.0337 H         1 UNK         0.0848 
     91 H91        27.8023  -48.7046  -58.5737 H         1 UNK         0.3144 
     92 H92        27.5065  -47.5662  -56.3643 H         1 UNK         0.0727 
     93 H93        25.7659  -46.8873  -54.7752 H         1 UNK         0.0790 
     94 H94        24.5768  -46.7340  -56.0700 H         1 UNK         0.0790 
     95 H95        25.9539  -45.6422  -55.9923 H         1 UNK         0.0790 
     96 H96        25.2126  -49.1087  -55.8617 H         1 UNK         0.3215 
     97 H97        25.1793  -51.5756  -56.4750 H         1 UNK         0.0863 
     98 H98        26.6291  -53.5521  -55.9600 H         1 UNK         0.0808 
     99 H99        28.0685  -52.5379  -56.0586 H         1 UNK         0.0808 
    100 H100       27.0892  -52.8249  -57.4918 H         1 UNK         0.0808 
    101 H101       26.9142  -50.6361  -54.2734 H         1 UNK         0.3118 
    102 H102       24.3560  -50.9846  -51.9590 H         1 UNK         0.0546 
    103 H103       24.9971  -53.3816  -51.7076 H         1 UNK         0.0828 
    104 H104       25.7546  -52.4000  -50.4664 H         1 UNK         0.0828 
    105 H105       26.6982  -52.9626  -51.8475 H         1 UNK         0.0828 
    106 H106       27.2016  -50.5612  -51.6502 H         1 UNK         0.3005 
    107 H107       27.3087  -47.2335  -52.6824 H         1 UNK         0.1257 
    108 H108       27.0165  -48.1152  -49.7684 H         1 UNK         0.0775 
    109 H109       26.1954  -46.7783  -50.5190 H         1 UNK         0.0775 
    110 H110       26.9350  -44.6391  -50.9075 H         1 UNK         0.0840 
    111 H111       28.0444  -43.9324  -49.7671 H         1 UNK         0.0840 
    112 H112       29.2278  -48.6172  -51.2242 H         1 UNK         0.2987 
    113 H113       31.1116  -49.2711  -52.3422 H         1 UNK         0.0785 
    114 H114       30.0273  -51.4346  -51.7168 H         1 UNK         0.0798 
    115 H115       31.4859  -51.7339  -52.6457 H         1 UNK         0.0798 
    116 H116       29.9041  -51.8922  -53.4100 H         1 UNK         0.0798 
    117 H117       31.1526  -50.4879  -55.0016 H         1 UNK         0.3079 
    118 H118       32.7941  -49.4398  -56.4581 H         1 UNK         0.0794 
    119 H119       30.3099  -47.7500  -57.1365 H         1 UNK         0.0786 
    120 H120       30.4358  -49.4950  -57.2410 H         1 UNK         0.0786 
    121 H121       31.3547  -48.4908  -58.3505 H         1 UNK         0.0786 
    122 H122       32.8522  -46.6494  -55.8117 H         1 UNK         0.3032 
    123 H123       35.8723  -46.2297  -57.4650 H         1 UNK         0.1094 
    124 H124       33.4484  -44.5572  -58.3077 H         1 UNK         0.0794 
    125 H125       35.1455  -44.1351  -58.5120 H         1 UNK         0.0794 
    126 H126       34.4581  -45.4713  -59.4182 H         1 UNK         0.0794 
    127 H127       34.2853  -44.3249  -56.0458 H         1 UNK         0.3016 
@<TRIPOS>BOND
     1    1    2 1    
     2    1   67 1    
     3    1   68 1    
     4    1   69 1    
     5    2    3 2    
     6    2    4 am   BACKBONE|DICT|INTERRES
     7    4    5 1    
     8    4   70 1    
     9    5    6 1    
    10    5   65 1    
    11    5   71 1    
    12    6    7 1    
    13    6   72 1    
    14    6   73 1    
    15    7    8 1    
    16    8    9 1    
    17    8   74 1    
    18    8   75 1    
    19    9   10 ar   
    20    9   14 ar   
    21   10   11 ar   
    22   10   76 1    
    23   11   12 ar   
    24   11   48 1    
    25   12   13 ar   
    26   12   77 1    
    27   13   14 ar   
    28   13   15 1    
    29   14   78 1    
    30   15   16 1    
    31   15   79 1    
    32   15   80 1    
    33   16   17 1    
    34   17   18 1    
    35   17   81 1    
    36   17   82 1    
    37   18   19 1    
    38   18   22 1    
    39   18   83 1    
    40   19   20 am   BACKBONE|DICT|INTERRES
    41   19   21 2    
    42   20   84 1    
    43   20   85 1    
    44   22   23 am   BACKBONE|DICT|INTERRES
    45   22   86 1    
    46   23   24 2    
    47   23   25 1    
    48   25   26 1    
    49   25   27 1    
    50   25   87 1    
    51   26   88 1    
    52   26   89 1    
    53   26   90 1    
    54   27   28 am   BACKBONE|DICT|INTERRES
    55   27   91 1    
    56   28   29 2    
    57   28   30 1    
    58   30   31 1    
    59   30   32 1    
    60   30   92 1    
    61   31   93 1    
    62   31   94 1    
    63   31   95 1    
    64   32   33 am   BACKBONE|DICT|INTERRES
    65   32   96 1    
    66   33   34 2    
    67   33   35 1    
    68   35   36 1    
    69   35   37 1    
    70   35   97 1    
    71   36   98 1    
    72   36   99 1    
    73   36  100 1    
    74   37   38 am   BACKBONE|DICT|INTERRES
    75   37  101 1    
    76   38   39 2    
    77   38   40 1    
    78   40   41 1    
    79   40   42 1    
    80   40  102 1    
    81   41  103 1    
    82   41  104 1    
    83   41  105 1    
    84   42   43 am   BACKBONE|DICT|INTERRES
    85   42  106 1    
    86   43   44 2    
    87   43   45 1    
    88   45   46 1    
    89   45   49 1    
    90   45  107 1    
    91   46   47 1    
    92   46  108 1    
    93   46  109 1    
    94   47   48 1    
    95   48  110 1    
    96   48  111 1    
    97   49   50 am   BACKBONE|DICT|INTERRES
    98   49  112 1    
    99   50   51 2    
   100   50   52 1    
   101   52   53 1    
   102   52   54 1    
   103   52  113 1    
   104   53  114 1    
   105   53  115 1    
   106   53  116 1    
   107   54   55 am   BACKBONE|DICT|INTERRES
   108   54  117 1    
   109   55   56 2    
   110   55   57 1    
   111   57   58 1    
   112   57   59 1    
   113   57  118 1    
   114   58  119 1    
   115   58  120 1    
   116   58  121 1    
   117   59   60 am   BACKBONE|DICT|INTERRES
   118   59  122 1    
   119   60   61 2    
   120   60   62 1    
   121   62   63 1    
   122   62   64 1    
   123   62  123 1    
   124   63  124 1    
   125   63  125 1    
   126   63  126 1    
   127   64   65 am   BACKBONE|DICT|INTERRES
   128   64  127 1    
   129   65   66 2    
@<TRIPOS>SUBSTRUCTURE
     1 UNK         1 GROUP             0       ****    0 ROOT    
