@<TRIPOS>MOLECULE
3R134
127   129    1
SMALL
USER_CHARGES


@<TRIPOS>ATOM
      1 CA         35.7051  -46.1497  -49.7443 C.3       0 UNK        -0.1968 
      2 C          35.0093  -46.6719  -50.9910 C.2       0 UNK         0.4852 
      3 O          34.4457  -47.7686  -50.9652 O.2       0 UNK        -0.5359 
      4 N          35.0221  -45.8940  -52.0839 N.am      1 UNK        -0.4300 
      5 CA         34.4253  -46.2562  -53.3767 C.3       1 UNK         0.0863 
      6 C6         34.8586  -45.3044  -54.5184 C.3       11 UNK        -0.0953 
      7 S7         34.3124  -43.5734  -54.3147 S.3       11 UNK        -0.2369 
      8 C8         33.5932  -43.2133  -55.9527 C.3       11 UNK         0.0226 
      9 C9         32.3627  -44.0620  -56.2402 C.ar      11 UNK        -0.0699 
     10 C10        32.3860  -45.0337  -57.2473 C.ar      11 UNK        -0.0804 
     11 C11        31.2754  -45.8579  -57.4696 C.ar      11 UNK        -0.0871 
     12 C12        30.1225  -45.6620  -56.7000 C.ar      11 UNK        -0.1008 
     13 C13        30.0729  -44.6671  -55.7203 C.ar      11 UNK        -0.0735 
     14 C14        31.1993  -43.8757  -55.4899 C.ar      11 UNK        -0.0945 
     15 C15        28.8091  -44.4430  -54.9051 C.3       11 UNK         0.0169 
     16 S16        27.8056  -43.1035  -55.6144 S.3       11 UNK        -0.2669 
     17 C17        26.4798  -42.9502  -54.3629 C.3       11 UNK        -0.0850 
     18 CA         25.0576  -43.2708  -54.8958 C.3       10 UNK         0.0855 
     19 C          24.5033  -42.1416  -55.8112 C.2       10 UNK         0.5543 
     20 N          24.0077  -41.0613  -55.2223 N.am      10 UNK        -0.7343 
     21 O          24.5447  -42.2155  -57.0374 O.2       10 UNK        -0.5027 
     22 N          25.0044  -44.6058  -55.5047 N.am      10 UNK        -0.4495 
     23 C          23.8870  -45.2852  -55.7885 C.2       10 UNK         0.4903 
     24 O          22.7545  -44.8922  -55.5019 O.2       10 UNK        -0.4860 
     25 CA         24.0802  -46.6510  -56.4769 C.3       9 UNK         0.0227 
     26 CB         22.7885  -47.1932  -57.1261 C.3       9 UNK        -0.1964 
     27 N          25.2013  -46.6679  -57.4256 N.am      9 UNK        -0.4231 
     28 C          25.3165  -45.9667  -58.5672 C.2       9 UNK         0.5014 
     29 O          24.4550  -45.1965  -58.9922 O.2       9 UNK        -0.5270 
     30 CA         26.6106  -46.1480  -59.3882 C.3       8 UNK         0.0284 
     31 CB         27.5398  -44.9377  -59.1986 C.3       8 UNK        -0.1977 
     32 N          27.3440  -47.3772  -59.0706 N.am      8 UNK        -0.4342 
     33 C          26.9167  -48.6145  -59.3544 C.2       8 UNK         0.5039 
     34 O          25.9000  -48.8490  -60.0088 O.2       8 UNK        -0.5547 
     35 CA         27.7416  -49.7975  -58.8133 C.3       7 UNK         0.0281 
     36 CB         28.6342  -50.3691  -59.9273 C.3       7 UNK        -0.1963 
     37 N          28.5777  -49.5444  -57.6313 N.am      7 UNK        -0.4444 
     38 C          28.2246  -49.0020  -56.4595 C.2       7 UNK         0.5104 
     39 O          27.1364  -48.4617  -56.2615 O.2       7 UNK        -0.5100 
     40 CA         29.2498  -49.0469  -55.3051 C.3       6 UNK         0.0396 
     41 CB         28.9623  -50.2543  -54.3953 C.3       6 UNK        -0.1801 
     42 N          30.6802  -49.0068  -55.6611 N.am      6 UNK        -0.4747 
     43 C          31.4054  -49.8623  -56.4014 C.2       6 UNK         0.5012 
     44 O          30.9302  -50.8174  -57.0157 O.2       6 UNK        -0.5003 
     45 CA         32.9254  -49.6383  -56.4224 C.3       5 UNK         0.0782 
     46 C46        33.3539  -48.2665  -57.0039 C.3       11 UNK        -0.0868 
     47 S47        32.8438  -47.9033  -58.7189 S.3       11 UNK        -0.2515 
     48 C48        31.2850  -46.9528  -58.5402 C.3       11 UNK         0.0199 
     49 N          33.4048  -49.7912  -55.0478 N.am      5 UNK        -0.4607 
     50 C          34.0347  -50.8675  -54.5657 C.2       4 UNK         0.5031 
     51 O          34.3344  -51.8468  -55.2491 O.2       4 UNK        -0.5119 
     52 CA         34.4156  -50.8554  -53.0744 C.3       4 UNK         0.0263 
     53 CB         35.8354  -50.2969  -52.8853 C.3       4 UNK        -0.1967 
     54 N          33.4846  -50.1177  -52.2130 N.am      4 UNK        -0.4237 
     55 C          32.2694  -50.5659  -51.8610 C.2       3 UNK         0.4908 
     56 O          31.7690  -51.5992  -52.3053 O.2       3 UNK        -0.5102 
     57 CA         31.4878  -49.7471  -50.8212 C.3       3 UNK         0.0241 
     58 CB         32.0498  -49.9903  -49.4103 C.3       3 UNK        -0.1971 
     59 N          31.5402  -48.3180  -51.1248 N.am      3 UNK        -0.4139 
     60 C          30.5120  -47.5948  -51.5918 C.2       2 UNK         0.5016 
     61 O          29.3646  -48.0262  -51.7051 O.2       2 UNK        -0.5319 
     62 CA         30.8019  -46.1443  -52.0328 C.3       2 UNK         0.0286 
     63 CB         30.3094  -45.1401  -50.9794 C.3       2 UNK        -0.1963 
     64 N          32.2105  -45.8730  -52.3388 N.am      2 UNK        -0.4790 
     65 C          32.8987  -46.4874  -53.3113 C.2       1 UNK         0.5024 
     66 O          32.3813  -47.3016  -54.0726 O.2       1 UNK        -0.4888 
     67 H67        34.9927  -46.0709  -48.9236 H         1 UNK         0.0892 
     68 H68        36.4964  -46.8359  -49.4441 H         1 UNK         0.0892 
     69 H69        36.1492  -45.1677  -49.9057 H         1 UNK         0.0892 
     70 H70        35.4785  -44.9929  -52.0527 H         1 UNK         0.3107 
     71 H71        34.8446  -47.2309  -53.6304 H         1 UNK         0.0773 
     72 H72        35.9471  -45.2982  -54.5914 H         1 UNK         0.0680 
     73 H73        34.5138  -45.6945  -55.4762 H         1 UNK         0.0680 
     74 H74        34.3569  -43.3597  -56.7181 H         1 UNK         0.0650 
     75 H75        33.3165  -42.1589  -55.9920 H         1 UNK         0.0650 
     76 H76        33.2807  -45.1709  -57.8386 H         1 UNK         0.1397 
     77 H77        29.2518  -46.2777  -56.8640 H         1 UNK         0.1363 
     78 H78        31.1739  -43.1156  -54.7210 H         1 UNK         0.1355 
     79 H79        29.0749  -44.1801  -53.8804 H         1 UNK         0.0707 
     80 H80        28.2184  -45.3591  -54.8520 H         1 UNK         0.0707 
     81 H81        26.6994  -43.6097  -53.5220 H         1 UNK         0.1034 
     82 H82        26.5157  -41.9418  -53.9464 H         1 UNK         0.1034 
     83 H83        24.3979  -43.3099  -54.0263 H         1 UNK         0.0482 
     84 H84        23.6542  -40.3110  -55.7954 H         1 UNK         0.3460 
     85 H85        23.9702  -40.9829  -54.2178 H         1 UNK         0.3460 
     86 H86        25.8871  -44.9763  -55.8213 H         1 UNK         0.2989 
     87 H87        24.3581  -47.3460  -55.6833 H         1 UNK         0.0559 
     88 H88        22.3996  -46.5145  -57.8857 H         1 UNK         0.0848 
     89 H89        22.0035  -47.3279  -56.3810 H         1 UNK         0.0848 
     90 H90        22.9572  -48.1620  -57.5961 H         1 UNK         0.0848 
     91 H91        25.9671  -47.2851  -57.1616 H         1 UNK         0.3144 
     92 H92        26.3241  -46.1937  -60.4411 H         1 UNK         0.0727 
     93 H93        27.8145  -44.7979  -58.1538 H         1 UNK         0.0790 
     94 H94        27.0491  -44.0191  -59.5236 H         1 UNK         0.0790 
     95 H95        28.4562  -45.0374  -59.7806 H         1 UNK         0.0790 
     96 H96        28.1904  -47.2837  -58.5336 H         1 UNK         0.3215 
     97 H97        27.0240  -50.5681  -58.5248 H         1 UNK         0.0863 
     98 H98        29.1248  -51.2898  -59.6104 H         1 UNK         0.0808 
     99 H99        29.4096  -49.6616  -60.2239 H         1 UNK         0.0808 
    100 H100       28.0500  -50.6065  -60.8177 H         1 UNK         0.0808 
    101 H101       29.4846  -50.0093  -57.6277 H         1 UNK         0.3118 
    102 H102       29.0785  -48.1460  -54.7135 H         1 UNK         0.0546 
    103 H103       29.1346  -51.2015  -54.9073 H         1 UNK         0.0828 
    104 H104       27.9260  -50.2502  -54.0547 H         1 UNK         0.0828 
    105 H105       29.5911  -50.2356  -53.5058 H         1 UNK         0.0828 
    106 H106       31.1985  -48.2577  -55.2066 H         1 UNK         0.3005 
    107 H107       33.3560  -50.4143  -57.0598 H         1 UNK         0.1257 
    108 H108       33.0326  -47.4544  -56.3645 H         1 UNK         0.0775 
    109 H109       34.4434  -48.2119  -56.9894 H         1 UNK         0.0775 
    110 H110       31.0517  -46.4939  -59.5017 H         1 UNK         0.0840 
    111 H111       30.4872  -47.6685  -58.3498 H         1 UNK         0.0840 
    112 H112       33.1459  -49.0443  -54.4125 H         1 UNK         0.2987 
    113 H113       34.4234  -51.8949  -52.7387 H         1 UNK         0.0785 
    114 H114       36.5590  -50.8636  -53.4731 H         1 UNK         0.0798 
    115 H115       36.1489  -50.3563  -51.8428 H         1 UNK         0.0798 
    116 H116       35.9089  -49.2555  -53.1963 H         1 UNK         0.0798 
    117 H117       33.8460  -49.2750  -51.7686 H         1 UNK         0.3079 
    118 H118       30.4548  -50.1014  -50.8348 H         1 UNK         0.0794 
    119 H119       31.4594  -49.4691  -48.6566 H         1 UNK         0.0786 
    120 H120       33.0823  -49.6502  -49.3184 H         1 UNK         0.0786 
    121 H121       32.0310  -51.0518  -49.1597 H         1 UNK         0.0786 
    122 H122       32.4548  -47.8817  -51.0693 H         1 UNK         0.3032 
    123 H123       30.2356  -45.9896  -52.9519 H         1 UNK         0.1094 
    124 H124       30.4144  -44.1133  -51.3304 H         1 UNK         0.0794 
    125 H125       29.2534  -45.2969  -50.7543 H         1 UNK         0.0794 
    126 H126       30.8604  -45.2356  -50.0430 H         1 UNK         0.0794 
    127 H127       32.6995  -45.2243  -51.7391 H         1 UNK         0.3016 
@<TRIPOS>BOND
     1    1    2 1    
     2    1   67 1    
     3    1   68 1    
     4    1   69 1    
     5    2    3 2    
     6    2    4 am   BACKBONE|DICT|INTERRES
     7    4    5 1    
     8    4   70 1    
     9    5    6 1    
    10    5   65 1    
    11    5   71 1    
    12    6    7 1    
    13    6   72 1    
    14    6   73 1    
    15    7    8 1    
    16    8    9 1    
    17    8   74 1    
    18    8   75 1    
    19    9   10 ar   
    20    9   14 ar   
    21   10   11 ar   
    22   10   76 1    
    23   11   12 ar   
    24   11   48 1    
    25   12   13 ar   
    26   12   77 1    
    27   13   14 ar   
    28   13   15 1    
    29   14   78 1    
    30   15   16 1    
    31   15   79 1    
    32   15   80 1    
    33   16   17 1    
    34   17   18 1    
    35   17   81 1    
    36   17   82 1    
    37   18   19 1    
    38   18   22 1    
    39   18   83 1    
    40   19   20 am   BACKBONE|DICT|INTERRES
    41   19   21 2    
    42   20   84 1    
    43   20   85 1    
    44   22   23 am   BACKBONE|DICT|INTERRES
    45   22   86 1    
    46   23   24 2    
    47   23   25 1    
    48   25   26 1    
    49   25   27 1    
    50   25   87 1    
    51   26   88 1    
    52   26   89 1    
    53   26   90 1    
    54   27   28 am   BACKBONE|DICT|INTERRES
    55   27   91 1    
    56   28   29 2    
    57   28   30 1    
    58   30   31 1    
    59   30   32 1    
    60   30   92 1    
    61   31   93 1    
    62   31   94 1    
    63   31   95 1    
    64   32   33 am   BACKBONE|DICT|INTERRES
    65   32   96 1    
    66   33   34 2    
    67   33   35 1    
    68   35   36 1    
    69   35   37 1    
    70   35   97 1    
    71   36   98 1    
    72   36   99 1    
    73   36  100 1    
    74   37   38 am   BACKBONE|DICT|INTERRES
    75   37  101 1    
    76   38   39 2    
    77   38   40 1    
    78   40   41 1    
    79   40   42 1    
    80   40  102 1    
    81   41  103 1    
    82   41  104 1    
    83   41  105 1    
    84   42   43 am   BACKBONE|DICT|INTERRES
    85   42  106 1    
    86   43   44 2    
    87   43   45 1    
    88   45   46 1    
    89   45   49 1    
    90   45  107 1    
    91   46   47 1    
    92   46  108 1    
    93   46  109 1    
    94   47   48 1    
    95   48  110 1    
    96   48  111 1    
    97   49   50 am   BACKBONE|DICT|INTERRES
    98   49  112 1    
    99   50   51 2    
   100   50   52 1    
   101   52   53 1    
   102   52   54 1    
   103   52  113 1    
   104   53  114 1    
   105   53  115 1    
   106   53  116 1    
   107   54   55 am   BACKBONE|DICT|INTERRES
   108   54  117 1    
   109   55   56 2    
   110   55   57 1    
   111   57   58 1    
   112   57   59 1    
   113   57  118 1    
   114   58  119 1    
   115   58  120 1    
   116   58  121 1    
   117   59   60 am   BACKBONE|DICT|INTERRES
   118   59  122 1    
   119   60   61 2    
   120   60   62 1    
   121   62   63 1    
   122   62   64 1    
   123   62  123 1    
   124   63  124 1    
   125   63  125 1    
   126   63  126 1    
   127   64   65 am   BACKBONE|DICT|INTERRES
   128   64  127 1    
   129   65   66 2    
@<TRIPOS>SUBSTRUCTURE
     1 UNK         1 GROUP             0       ****    0 ROOT    
