@<TRIPOS>MOLECULE
3R134
127   129    1
SMALL
USER_CHARGES


@<TRIPOS>ATOM
      1 CA         30.1804  -44.5134  -49.6895 C.3       0 UNK        -0.1968 
      2 C          31.5661  -45.1072  -49.4798 C.2       0 UNK         0.4852 
      3 O          31.8982  -45.5109  -48.3640 O.2       0 UNK        -0.5359 
      4 N          32.3761  -45.1545  -50.5438 N.am      1 UNK        -0.4300 
      5 CA         33.7008  -45.7799  -50.5725 C.3       1 UNK         0.0863 
      6 C6         34.5541  -45.2517  -51.7571 C.3       11 UNK        -0.0953 
      7 S7         33.7483  -45.4291  -53.3877 S.3       11 UNK        -0.2369 
      8 C8         33.3556  -43.6965  -53.7731 C.3       11 UNK         0.0226 
      9 C9         32.3400  -43.6035  -54.9000 C.ar      11 UNK        -0.0699 
     10 C10        32.7207  -43.8917  -56.2124 C.ar      11 UNK        -0.0804 
     11 C11        31.7916  -43.8137  -57.2528 C.ar      11 UNK        -0.0871 
     12 C12        30.4774  -43.4287  -56.9731 C.ar      11 UNK        -0.1008 
     13 C13        30.0795  -43.1259  -55.6622 C.ar      11 UNK        -0.0735 
     14 C14        31.0214  -43.2241  -54.6331 C.ar      11 UNK        -0.0945 
     15 C15        28.6522  -42.7127  -55.2927 C.3       11 UNK         0.0169 
     16 S16        27.5297  -42.4226  -56.7035 S.3       11 UNK        -0.2669 
     17 C17        25.9344  -43.0027  -56.0296 C.3       11 UNK        -0.0850 
     18 CA         25.7984  -44.5559  -55.9658 C.3       10 UNK         0.0855 
     19 C          24.4145  -45.0099  -55.4095 C.2       10 UNK         0.5543 
     20 N          23.8999  -46.1787  -55.7705 N.am      10 UNK        -0.7343 
     21 O          23.7972  -44.2988  -54.6199 O.2       10 UNK        -0.5027 
     22 N          26.2290  -45.2329  -57.2008 N.am      10 UNK        -0.4495 
     23 C          25.6720  -45.0887  -58.4108 C.2       10 UNK         0.4903 
     24 O          24.6624  -44.4214  -58.6379 O.2       10 UNK        -0.4860 
     25 CA         26.3685  -45.8122  -59.5692 C.3       9 UNK         0.0227 
     26 CB         27.6290  -45.0457  -60.0056 C.3       9 UNK        -0.1964 
     27 N          26.7280  -47.1743  -59.1734 N.am      9 UNK        -0.4231 
     28 C          26.0530  -48.2693  -59.5446 C.2       9 UNK         0.5014 
     29 O          25.1068  -48.2630  -60.3339 O.2       9 UNK        -0.5270 
     30 CA         26.5008  -49.6069  -58.9343 C.3       8 UNK         0.0284 
     31 CB         27.6911  -50.1878  -59.7154 C.3       8 UNK        -0.1977 
     32 N          26.8352  -49.5398  -57.5090 N.am      8 UNK        -0.4342 
     33 C          25.9736  -49.2422  -56.5254 C.2       8 UNK         0.5039 
     34 O          24.8161  -48.8709  -56.7177 O.2       8 UNK        -0.5547 
     35 CA         26.4848  -49.3850  -55.0845 C.3       7 UNK         0.0281 
     36 CB         26.6751  -50.8655  -54.7125 C.3       7 UNK        -0.1963 
     37 N          27.7486  -48.6714  -54.9183 N.am      7 UNK        -0.4444 
     38 C          27.8826  -47.4906  -54.3005 C.2       7 UNK         0.5104 
     39 O          26.9766  -46.9383  -53.6770 O.2       7 UNK        -0.5100 
     40 CA         29.2496  -46.7845  -54.3989 C.3       6 UNK         0.0396 
     41 CB         29.9986  -46.8651  -53.0605 C.3       6 UNK        -0.1801 
     42 N          30.1138  -47.2876  -55.4709 N.am      6 UNK        -0.4747 
     43 C          29.8433  -47.1870  -56.7820 C.2       6 UNK         0.5012 
     44 O          28.8120  -46.6766  -57.2255 O.2       6 UNK        -0.5003 
     45 CA         30.8319  -47.8695  -57.7555 C.3       5 UNK         0.0782 
     46 C46        31.9705  -46.9226  -58.2057 C.3       11 UNK        -0.0868 
     47 S47        31.3932  -45.6198  -59.3457 S.3       11 UNK        -0.2515 
     48 C48        32.2122  -44.1326  -58.6818 C.3       11 UNK         0.0199 
     49 N          31.3774  -49.1262  -57.2276 N.am      5 UNK        -0.4607 
     50 C          30.6596  -50.1850  -56.8270 C.2       4 UNK         0.5031 
     51 O          29.4308  -50.2293  -56.8672 O.2       4 UNK        -0.5119 
     52 CA         31.4301  -51.3841  -56.2501 C.3       4 UNK         0.0263 
     53 CB         31.6543  -52.4441  -57.3398 C.3       4 UNK        -0.1967 
     54 N          32.7154  -51.0370  -55.6309 N.am      4 UNK        -0.4237 
     55 C          32.8604  -50.2337  -54.5681 C.2       3 UNK         0.4908 
     56 O          31.9284  -49.6392  -54.0211 O.2       3 UNK        -0.5102 
     57 CA         34.2898  -50.0360  -54.0566 C.3       3 UNK         0.0241 
     58 CB         35.0149  -48.9429  -54.8623 C.3       3 UNK        -0.1971 
     59 N          34.2294  -49.6557  -52.6494 N.am      3 UNK        -0.4139 
     60 C          35.1496  -49.9322  -51.7206 C.2       2 UNK         0.5016 
     61 O          36.2072  -50.5176  -51.9632 O.2       2 UNK        -0.5319 
     62 CA         34.8420  -49.4513  -50.2871 C.3       2 UNK         0.0286 
     63 CB         35.9181  -49.8809  -49.2716 C.3       2 UNK        -0.1963 
     64 N          34.6967  -47.9938  -50.2327 N.am      2 UNK        -0.4790 
     65 C          33.5954  -47.3202  -50.5889 C.2       1 UNK         0.5024 
     66 O          32.5570  -47.8746  -50.9593 O.2       1 UNK        -0.4888 
     67 H67        30.0292  -43.6669  -49.0202 H         1 UNK         0.0892 
     68 H68        29.4168  -45.2602  -49.4733 H         1 UNK         0.0892 
     69 H69        30.0347  -44.1665  -50.7125 H         1 UNK         0.0892 
     70 H70        32.0361  -44.8502  -51.4434 H         1 UNK         0.3107 
     71 H71        34.2147  -45.5063  -49.6483 H         1 UNK         0.0773 
     72 H72        34.7944  -44.2009  -51.5880 H         1 UNK         0.0680 
     73 H73        35.5193  -45.7597  -51.7982 H         1 UNK         0.0680 
     74 H74        34.2705  -43.1733  -54.0549 H         1 UNK         0.0650 
     75 H75        32.9759  -43.1983  -52.8798 H         1 UNK         0.0650 
     76 H76        33.7409  -44.1868  -56.4174 H         1 UNK         0.1397 
     77 H77        29.7735  -43.3819  -57.7908 H         1 UNK         0.1363 
     78 H78        30.7241  -43.0016  -53.6174 H         1 UNK         0.1355 
     79 H79        28.2355  -43.4828  -54.6444 H         1 UNK         0.0707 
     80 H80        28.6863  -41.7993  -54.6973 H         1 UNK         0.0707 
     81 H81        25.1401  -42.5838  -56.6498 H         1 UNK         0.1034 
     82 H82        25.7987  -42.5655  -55.0386 H         1 UNK         0.1034 
     83 H83        26.5070  -44.8945  -55.2135 H         1 UNK         0.0482 
     84 H84        23.0070  -46.4534  -55.3945 H         1 UNK         0.3460 
     85 H85        24.4027  -46.8193  -56.3711 H         1 UNK         0.3460 
     86 H86        27.0860  -45.7712  -57.1261 H         1 UNK         0.2989 
     87 H87        25.6814  -45.8285  -60.4176 H         1 UNK         0.0559 
     88 H88        28.1314  -45.5452  -60.8339 H         1 UNK         0.0848 
     89 H89        28.3484  -44.9436  -59.1928 H         1 UNK         0.0848 
     90 H90        27.3748  -44.0385  -60.3381 H         1 UNK         0.0848 
     91 H91        27.4828  -47.2616  -58.4994 H         1 UNK         0.3144 
     92 H92        25.6650  -50.3028  -59.0332 H         1 UNK         0.0727 
     93 H93        27.9617  -51.1779  -59.3478 H         1 UNK         0.0790 
     94 H94        28.5731  -49.5520  -59.6416 H         1 UNK         0.0790 
     95 H95        27.4504  -50.2903  -60.7745 H         1 UNK         0.0790 
     96 H96        27.7779  -49.8384  -57.2575 H         1 UNK         0.3215 
     97 H97        25.7223  -48.9703  -54.4212 H         1 UNK         0.0863 
     98 H98        26.9748  -50.9730  -53.6700 H         1 UNK         0.0808 
     99 H99        27.4335  -51.3508  -55.3279 H         1 UNK         0.0808 
    100 H100       25.7455  -51.4215  -54.8409 H         1 UNK         0.0808 
    101 H101       28.5477  -49.0445  -55.4173 H         1 UNK         0.3118 
    102 H102       29.0507  -45.7333  -54.6106 H         1 UNK         0.0546 
    103 H103       30.2385  -47.8945  -52.7920 H         1 UNK         0.0828 
    104 H104       29.4002  -46.4486  -52.2494 H         1 UNK         0.0828 
    105 H105       30.9311  -46.3042  -53.0951 H         1 UNK         0.0828 
    106 H106       30.9434  -47.7900  -55.1807 H         1 UNK         0.3005 
    107 H107       30.2546  -48.1405  -58.6415 H         1 UNK         0.1257 
    108 H108       32.4787  -46.4917  -57.3420 H         1 UNK         0.0775 
    109 H109       32.7331  -47.4871  -58.7446 H         1 UNK         0.0775 
    110 H110       33.2932  -44.2642  -58.7504 H         1 UNK         0.0840 
    111 H111       31.9685  -43.2830  -59.3212 H         1 UNK         0.0840 
    112 H112       32.3819  -49.1824  -57.1519 H         1 UNK         0.2987 
    113 H113       30.8003  -51.8222  -55.4729 H         1 UNK         0.0785 
    114 H114       32.3039  -52.0763  -58.1351 H         1 UNK         0.0798 
    115 H115       30.7091  -52.7360  -57.8005 H         1 UNK         0.0798 
    116 H116       32.1033  -53.3484  -56.9287 H         1 UNK         0.0798 
    117 H117       33.5370  -51.4737  -56.0249 H         1 UNK         0.3079 
    118 H118       34.8264  -50.9824  -54.1536 H         1 UNK         0.0794 
    119 H119       34.4829  -47.9920  -54.8178 H         1 UNK         0.0786 
    120 H120       35.1030  -49.2200  -55.9133 H         1 UNK         0.0786 
    121 H121       36.0247  -48.7771  -54.4866 H         1 UNK         0.0786 
    122 H122       33.3727  -49.1832  -52.3708 H         1 UNK         0.3032 
    123 H123       33.9001  -49.9174  -49.9874 H         1 UNK         0.1094 
    124 H124       35.6518  -49.5768  -48.2591 H         1 UNK         0.0794 
    125 H125       36.0342  -50.9656  -49.2613 H         1 UNK         0.0794 
    126 H126       36.8925  -49.4507  -49.5064 H         1 UNK         0.0794 
    127 H127       35.5234  -47.4730  -49.9752 H         1 UNK         0.3016 
@<TRIPOS>BOND
     1    1    2 1    
     2    1   67 1    
     3    1   68 1    
     4    1   69 1    
     5    2    3 2    
     6    2    4 am   BACKBONE|DICT|INTERRES
     7    4    5 1    
     8    4   70 1    
     9    5    6 1    
    10    5   65 1    
    11    5   71 1    
    12    6    7 1    
    13    6   72 1    
    14    6   73 1    
    15    7    8 1    
    16    8    9 1    
    17    8   74 1    
    18    8   75 1    
    19    9   10 ar   
    20    9   14 ar   
    21   10   11 ar   
    22   10   76 1    
    23   11   12 ar   
    24   11   48 1    
    25   12   13 ar   
    26   12   77 1    
    27   13   14 ar   
    28   13   15 1    
    29   14   78 1    
    30   15   16 1    
    31   15   79 1    
    32   15   80 1    
    33   16   17 1    
    34   17   18 1    
    35   17   81 1    
    36   17   82 1    
    37   18   19 1    
    38   18   22 1    
    39   18   83 1    
    40   19   20 am   BACKBONE|DICT|INTERRES
    41   19   21 2    
    42   20   84 1    
    43   20   85 1    
    44   22   23 am   BACKBONE|DICT|INTERRES
    45   22   86 1    
    46   23   24 2    
    47   23   25 1    
    48   25   26 1    
    49   25   27 1    
    50   25   87 1    
    51   26   88 1    
    52   26   89 1    
    53   26   90 1    
    54   27   28 am   BACKBONE|DICT|INTERRES
    55   27   91 1    
    56   28   29 2    
    57   28   30 1    
    58   30   31 1    
    59   30   32 1    
    60   30   92 1    
    61   31   93 1    
    62   31   94 1    
    63   31   95 1    
    64   32   33 am   BACKBONE|DICT|INTERRES
    65   32   96 1    
    66   33   34 2    
    67   33   35 1    
    68   35   36 1    
    69   35   37 1    
    70   35   97 1    
    71   36   98 1    
    72   36   99 1    
    73   36  100 1    
    74   37   38 am   BACKBONE|DICT|INTERRES
    75   37  101 1    
    76   38   39 2    
    77   38   40 1    
    78   40   41 1    
    79   40   42 1    
    80   40  102 1    
    81   41  103 1    
    82   41  104 1    
    83   41  105 1    
    84   42   43 am   BACKBONE|DICT|INTERRES
    85   42  106 1    
    86   43   44 2    
    87   43   45 1    
    88   45   46 1    
    89   45   49 1    
    90   45  107 1    
    91   46   47 1    
    92   46  108 1    
    93   46  109 1    
    94   47   48 1    
    95   48  110 1    
    96   48  111 1    
    97   49   50 am   BACKBONE|DICT|INTERRES
    98   49  112 1    
    99   50   51 2    
   100   50   52 1    
   101   52   53 1    
   102   52   54 1    
   103   52  113 1    
   104   53  114 1    
   105   53  115 1    
   106   53  116 1    
   107   54   55 am   BACKBONE|DICT|INTERRES
   108   54  117 1    
   109   55   56 2    
   110   55   57 1    
   111   57   58 1    
   112   57   59 1    
   113   57  118 1    
   114   58  119 1    
   115   58  120 1    
   116   58  121 1    
   117   59   60 am   BACKBONE|DICT|INTERRES
   118   59  122 1    
   119   60   61 2    
   120   60   62 1    
   121   62   63 1    
   122   62   64 1    
   123   62  123 1    
   124   63  124 1    
   125   63  125 1    
   126   63  126 1    
   127   64   65 am   BACKBONE|DICT|INTERRES
   128   64  127 1    
   129   65   66 2    
@<TRIPOS>SUBSTRUCTURE
     1 UNK         1 GROUP             0       ****    0 ROOT    
