@<TRIPOS>MOLECULE
3R134
127   129    1
SMALL
USER_CHARGES


@<TRIPOS>ATOM
      1 CA         37.7903  -44.7334  -50.4301 C.3       0 UNK        -0.1968 
      2 C          36.9411  -44.8093  -51.6904 C.2       0 UNK         0.4852 
      3 O          37.4881  -44.8899  -52.7913 O.2       0 UNK        -0.5359 
      4 N          35.6102  -44.7817  -51.5368 N.am      1 UNK        -0.4300 
      5 CA         34.6346  -44.8385  -52.6348 C.3       1 UNK         0.0863 
      6 C6         33.2206  -44.4127  -52.1779 C.3       11 UNK        -0.0953 
      7 S7         33.1658  -42.7799  -51.3546 S.3       11 UNK        -0.2369 
      8 C8         32.4598  -41.6827  -52.6360 C.3       11 UNK         0.0226 
      9 C9         31.1803  -42.2178  -53.2729 C.ar      11 UNK        -0.0699 
     10 C10        30.1690  -42.7890  -52.4927 C.ar      11 UNK        -0.0804 
     11 C11        29.0587  -43.3878  -53.0950 C.ar      11 UNK        -0.0871 
     12 C12        28.9219  -43.3416  -54.4850 C.ar      11 UNK        -0.1008 
     13 C13        29.9062  -42.7402  -55.2726 C.ar      11 UNK        -0.0735 
     14 C14        31.0349  -42.1859  -54.6630 C.ar      11 UNK        -0.0945 
     15 C15        29.7677  -42.7252  -56.7847 C.3       11 UNK         0.0169 
     16 S16        30.2143  -44.3430  -57.4786 S.3       11 UNK        -0.2669 
     17 C17        30.1786  -43.9765  -59.2644 C.3       11 UNK        -0.0850 
     18 CA         28.7983  -44.2348  -59.9231 C.3       10 UNK         0.0855 
     19 C          28.8727  -43.8840  -61.4361 C.2       10 UNK         0.5543 
     20 N          28.4577  -42.6838  -61.8174 N.am      10 UNK        -0.7343 
     21 O          29.3502  -44.6706  -62.2518 O.2       10 UNK        -0.5027 
     22 N          28.3270  -45.6025  -59.6523 N.am      10 UNK        -0.4495 
     23 C          27.2100  -46.1697  -60.1259 C.2       10 UNK         0.4903 
     24 O          26.3774  -45.5934  -60.8265 O.2       10 UNK        -0.4860 
     25 CA         26.9769  -47.6329  -59.7259 C.3       9 UNK         0.0227 
     26 CB         28.2089  -48.5195  -59.9908 C.3       9 UNK        -0.1964 
     27 N          26.5987  -47.7324  -58.3190 N.am      9 UNK        -0.4231 
     28 C          25.3670  -47.5278  -57.8337 C.2       9 UNK         0.5014 
     29 O          24.4008  -47.1916  -58.5217 O.2       9 UNK        -0.5270 
     30 CA         25.1937  -47.7874  -56.3235 C.3       8 UNK         0.0284 
     31 CB         23.7222  -47.7528  -55.8597 C.3       8 UNK        -0.1977 
     32 N          25.8465  -49.0341  -55.9041 N.am      8 UNK        -0.4342 
     33 C          25.6162  -50.2774  -56.3568 C.2       8 UNK         0.5039 
     34 O          24.7157  -50.5715  -57.1441 O.2       8 UNK        -0.5547 
     35 CA         26.5726  -51.3876  -55.8820 C.3       7 UNK         0.0281 
     36 CB         27.5625  -51.7423  -57.0046 C.3       7 UNK        -0.1963 
     37 N          27.3319  -51.0315  -54.6819 N.am      7 UNK        -0.4444 
     38 C          26.8258  -50.9695  -53.4436 C.2       7 UNK         0.5104 
     39 O          25.6695  -51.2794  -53.1560 O.2       7 UNK        -0.5100 
     40 CA         27.7629  -50.4301  -52.3489 C.3       6 UNK         0.0396 
     41 CB         28.6769  -51.5444  -51.8147 C.3       6 UNK        -0.1801 
     42 N          28.5772  -49.2965  -52.8013 N.am      6 UNK        -0.4747 
     43 C          28.0883  -48.1026  -53.1723 C.2       6 UNK         0.5012 
     44 O          26.8882  -47.8308  -53.1931 O.2       6 UNK        -0.5003 
     45 CA         29.1086  -47.0504  -53.6455 C.3       5 UNK         0.0782 
     46 C46        29.8434  -46.3690  -52.4656 C.3       11 UNK        -0.0868 
     47 S47        28.7751  -45.4855  -51.2683 S.3       11 UNK        -0.2515 
     48 C48        28.0344  -44.1338  -52.2516 C.3       11 UNK         0.0199 
     49 N          30.0586  -47.6390  -54.5926 N.am      5 UNK        -0.4607 
     50 C          29.7524  -47.9976  -55.8487 C.2       4 UNK         0.5031 
     51 O          28.6543  -47.8018  -56.3698 O.2       4 UNK        -0.5119 
     52 CA         30.8313  -48.7465  -56.6526 C.3       4 UNK         0.0263 
     53 CB         31.6832  -47.7613  -57.4665 C.3       4 UNK        -0.1967 
     54 N          31.7073  -49.5735  -55.8195 N.am      4 UNK        -0.4237 
     55 C          31.2942  -50.5979  -55.0599 C.2       3 UNK         0.4908 
     56 O          30.1314  -50.9990  -55.0372 O.2       3 UNK        -0.5102 
     57 CA         32.3256  -51.2725  -54.1394 C.3       3 UNK         0.0241 
     58 CB         32.7582  -52.6250  -54.7277 C.3       3 UNK        -0.1971 
     59 N          33.5190  -50.4712  -53.8424 N.am      3 UNK        -0.4139 
     60 C          33.5382  -49.2770  -53.2322 C.2       2 UNK         0.5016 
     61 O          32.5178  -48.6660  -52.8997 O.2       2 UNK        -0.5319 
     62 CA         34.9367  -48.6994  -52.9258 C.3       2 UNK         0.0286 
     63 CB         35.9546  -48.9377  -54.0658 C.3       2 UNK        -0.1963 
     64 N          34.9132  -47.2818  -52.5448 N.am      2 UNK        -0.4790 
     65 C          34.5668  -46.2301  -53.3052 C.2       1 UNK         0.5024 
     66 O          34.2093  -46.3154  -54.4812 O.2       1 UNK        -0.4888 
     67 H67        38.4425  -43.8613  -50.4694 H         1 UNK         0.0892 
     68 H68        37.1800  -44.6591  -49.5301 H         1 UNK         0.0892 
     69 H69        38.4144  -45.6224  -50.3441 H         1 UNK         0.0892 
     70 H70        35.2170  -44.6821  -50.6114 H         1 UNK         0.3107 
     71 H71        34.9622  -44.1333  -53.4019 H         1 UNK         0.0773 
     72 H72        32.5490  -44.4164  -53.0362 H         1 UNK         0.0680 
     73 H73        32.8100  -45.1428  -51.4774 H         1 UNK         0.0680 
     74 H74        32.2515  -40.7095  -52.1902 H         1 UNK         0.0650 
     75 H75        33.2250  -41.5183  -53.3963 H         1 UNK         0.0650 
     76 H76        30.2779  -42.8307  -51.4175 H         1 UNK         0.1397 
     77 H77        28.0665  -43.7996  -54.9629 H         1 UNK         0.1363 
     78 H78        31.8119  -41.7492  -55.2756 H         1 UNK         0.1355 
     79 H79        30.4040  -41.9506  -57.2157 H         1 UNK         0.0707 
     80 H80        28.7419  -42.4792  -57.0633 H         1 UNK         0.0707 
     81 H81        30.4928  -42.9428  -59.4227 H         1 UNK         0.1034 
     82 H82        30.9438  -44.5929  -59.7409 H         1 UNK         0.1034 
     83 H83        28.0717  -43.5662  -59.4575 H         1 UNK         0.0482 
     84 H84        28.0740  -42.0283  -61.1543 H         1 UNK         0.3460 
     85 H85        28.5152  -42.4326  -62.7921 H         1 UNK         0.3460 
     86 H86        28.9249  -46.1496  -59.0522 H         1 UNK         0.2989 
     87 H87        26.1586  -48.0181  -60.3384 H         1 UNK         0.0559 
     88 H88        29.0495  -48.2687  -59.3440 H         1 UNK         0.0848 
     89 H89        28.5474  -48.4193  -61.0230 H         1 UNK         0.0848 
     90 H90        27.9741  -49.5719  -59.8298 H         1 UNK         0.0848 
     91 H91        27.3442  -47.9181  -57.6497 H         1 UNK         0.3144 
     92 H92        25.7207  -46.9804  -55.8120 H         1 UNK         0.0727 
     93 H93        23.2686  -46.7842  -56.0732 H         1 UNK         0.0790 
     94 H94        23.6437  -47.9178  -54.7850 H         1 UNK         0.0790 
     95 H95        23.1206  -48.5115  -56.3610 H         1 UNK         0.0790 
     96 H96        26.6114  -48.9140  -55.2532 H         1 UNK         0.3215 
     97 H97        25.9695  -52.2706  -55.6599 H         1 UNK         0.0863 
     98 H98        28.2180  -52.5628  -56.7118 H         1 UNK         0.0808 
     99 H99        28.1907  -50.8909  -57.2696 H         1 UNK         0.0808 
    100 H100       27.0362  -52.0535  -57.9079 H         1 UNK         0.0808 
    101 H101       28.3256  -50.8418  -54.8083 H         1 UNK         0.3118 
    102 H102       27.1401  -50.0790  -51.5235 H         1 UNK         0.0546 
    103 H103       29.3298  -51.9431  -52.5916 H         1 UNK         0.0828 
    104 H104       28.0877  -52.3773  -51.4287 H         1 UNK         0.0828 
    105 H105       29.3043  -51.1876  -50.9979 H         1 UNK         0.0828 
    106 H106       29.5754  -49.4431  -52.8516 H         1 UNK         0.3005 
    107 H107       28.5505  -46.2822  -54.1846 H         1 UNK         0.1257 
    108 H108       30.5756  -45.6630  -52.8557 H         1 UNK         0.0775 
    109 H109       30.4242  -47.1057  -51.9074 H         1 UNK         0.0775 
    110 H110       27.2437  -44.5511  -52.8772 H         1 UNK         0.0840 
    111 H111       27.5478  -43.4298  -51.5753 H         1 UNK         0.0840 
    112 H112       30.9790  -47.8606  -54.2292 H         1 UNK         0.2987 
    113 H113       30.3172  -49.4121  -57.3489 H         1 UNK         0.0785 
    114 H114       32.2156  -47.0595  -56.8222 H         1 UNK         0.0798 
    115 H115       31.0612  -47.1748  -58.1430 H         1 UNK         0.0798 
    116 H116       32.4195  -48.2819  -58.0789 H         1 UNK         0.0798 
    117 H117       32.6785  -49.3028  -55.7691 H         1 UNK         0.3079 
    118 H118       31.8217  -51.4612  -53.1894 H         1 UNK         0.0794 
    119 H119       31.8927  -53.2578  -54.9316 H         1 UNK         0.0786 
    120 H120       33.3995  -53.1731  -54.0371 H         1 UNK         0.0786 
    121 H121       33.2999  -52.5024  -55.6665 H         1 UNK         0.0786 
    122 H122       34.4049  -50.8938  -54.0801 H         1 UNK         0.3032 
    123 H123       35.2934  -49.2369  -52.0455 H         1 UNK         0.1094 
    124 H124       36.9027  -48.4418  -53.8558 H         1 UNK         0.0794 
    125 H125       36.1783  -49.9972  -54.1926 H         1 UNK         0.0794 
    126 H126       35.5910  -48.5614  -55.0228 H         1 UNK         0.0794 
    127 H127       35.1568  -47.0894  -51.5835 H         1 UNK         0.3016 
@<TRIPOS>BOND
     1    1    2 1    
     2    1   67 1    
     3    1   68 1    
     4    1   69 1    
     5    2    3 2    
     6    2    4 am   BACKBONE|DICT|INTERRES
     7    4    5 1    
     8    4   70 1    
     9    5    6 1    
    10    5   65 1    
    11    5   71 1    
    12    6    7 1    
    13    6   72 1    
    14    6   73 1    
    15    7    8 1    
    16    8    9 1    
    17    8   74 1    
    18    8   75 1    
    19    9   10 ar   
    20    9   14 ar   
    21   10   11 ar   
    22   10   76 1    
    23   11   12 ar   
    24   11   48 1    
    25   12   13 ar   
    26   12   77 1    
    27   13   14 ar   
    28   13   15 1    
    29   14   78 1    
    30   15   16 1    
    31   15   79 1    
    32   15   80 1    
    33   16   17 1    
    34   17   18 1    
    35   17   81 1    
    36   17   82 1    
    37   18   19 1    
    38   18   22 1    
    39   18   83 1    
    40   19   20 am   BACKBONE|DICT|INTERRES
    41   19   21 2    
    42   20   84 1    
    43   20   85 1    
    44   22   23 am   BACKBONE|DICT|INTERRES
    45   22   86 1    
    46   23   24 2    
    47   23   25 1    
    48   25   26 1    
    49   25   27 1    
    50   25   87 1    
    51   26   88 1    
    52   26   89 1    
    53   26   90 1    
    54   27   28 am   BACKBONE|DICT|INTERRES
    55   27   91 1    
    56   28   29 2    
    57   28   30 1    
    58   30   31 1    
    59   30   32 1    
    60   30   92 1    
    61   31   93 1    
    62   31   94 1    
    63   31   95 1    
    64   32   33 am   BACKBONE|DICT|INTERRES
    65   32   96 1    
    66   33   34 2    
    67   33   35 1    
    68   35   36 1    
    69   35   37 1    
    70   35   97 1    
    71   36   98 1    
    72   36   99 1    
    73   36  100 1    
    74   37   38 am   BACKBONE|DICT|INTERRES
    75   37  101 1    
    76   38   39 2    
    77   38   40 1    
    78   40   41 1    
    79   40   42 1    
    80   40  102 1    
    81   41  103 1    
    82   41  104 1    
    83   41  105 1    
    84   42   43 am   BACKBONE|DICT|INTERRES
    85   42  106 1    
    86   43   44 2    
    87   43   45 1    
    88   45   46 1    
    89   45   49 1    
    90   45  107 1    
    91   46   47 1    
    92   46  108 1    
    93   46  109 1    
    94   47   48 1    
    95   48  110 1    
    96   48  111 1    
    97   49   50 am   BACKBONE|DICT|INTERRES
    98   49  112 1    
    99   50   51 2    
   100   50   52 1    
   101   52   53 1    
   102   52   54 1    
   103   52  113 1    
   104   53  114 1    
   105   53  115 1    
   106   53  116 1    
   107   54   55 am   BACKBONE|DICT|INTERRES
   108   54  117 1    
   109   55   56 2    
   110   55   57 1    
   111   57   58 1    
   112   57   59 1    
   113   57  118 1    
   114   58  119 1    
   115   58  120 1    
   116   58  121 1    
   117   59   60 am   BACKBONE|DICT|INTERRES
   118   59  122 1    
   119   60   61 2    
   120   60   62 1    
   121   62   63 1    
   122   62   64 1    
   123   62  123 1    
   124   63  124 1    
   125   63  125 1    
   126   63  126 1    
   127   64   65 am   BACKBONE|DICT|INTERRES
   128   64  127 1    
   129   65   66 2    
@<TRIPOS>SUBSTRUCTURE
     1 UNK         1 GROUP             0       ****    0 ROOT    
