@<TRIPOS>MOLECULE
3R134
127   129    1
SMALL
USER_CHARGES


@<TRIPOS>ATOM
      1 CA         37.2656  -45.6156  -55.0560 C.3       0 UNK        -0.1968 
      2 C          36.3743  -45.3026  -53.8632 C.2       0 UNK         0.4852 
      3 O          36.8623  -45.2571  -52.7335 O.2       0 UNK        -0.5359 
      4 N          35.0726  -45.1005  -54.1136 N.am      1 UNK        -0.4300 
      5 CA         34.0292  -44.7549  -53.1323 C.3       1 UNK         0.0863 
      6 C6         34.2390  -43.3764  -52.4371 C.3       11 UNK        -0.0953 
      7 S7         34.5866  -42.0160  -53.6104 S.3       11 UNK        -0.2369 
      8 C8         32.9352  -41.2921  -53.8854 C.3       11 UNK         0.0226 
      9 C9         31.9401  -42.3137  -54.4179 C.ar      11 UNK        -0.0699 
     10 C10        32.1783  -42.9667  -55.6328 C.ar      11 UNK        -0.0804 
     11 C11        31.3129  -43.9691  -56.0797 C.ar      11 UNK        -0.0871 
     12 C12        30.1778  -44.2804  -55.3272 C.ar      11 UNK        -0.1008 
     13 C13        29.9099  -43.6104  -54.1314 C.ar      11 UNK        -0.0735 
     14 C14        30.7975  -42.6320  -53.6767 C.ar      11 UNK        -0.0945 
     15 C15        28.6682  -43.9624  -53.3303 C.3       11 UNK         0.0169 
     16 S16        27.2041  -43.1027  -53.9890 S.3       11 UNK        -0.2669 
     17 C17        25.8756  -44.3359  -53.7284 C.3       11 UNK        -0.0850 
     18 CA         24.9558  -44.5282  -54.9662 C.3       10 UNK         0.0855 
     19 C          23.9111  -43.3803  -55.1025 C.2       10 UNK         0.5543 
     20 N          23.8928  -42.6187  -56.1900 N.am      10 UNK        -0.7343 
     21 O          23.0914  -43.1885  -54.2076 O.2       10 UNK        -0.5027 
     22 N          25.7349  -44.8102  -56.1831 N.am      10 UNK        -0.4495 
     23 C          25.2752  -45.4445  -57.2689 C.2       10 UNK         0.4903 
     24 O          24.1404  -45.9137  -57.3620 O.2       10 UNK        -0.4860 
     25 CA         26.2319  -45.5772  -58.4618 C.3       9 UNK         0.0227 
     26 CB         27.5045  -44.7053  -58.3658 C.3       9 UNK        -0.1964 
     27 N          26.5995  -46.9822  -58.6181 N.am      9 UNK        -0.4231 
     28 C          26.9700  -47.5538  -59.7725 C.2       9 UNK         0.5014 
     29 O          26.9606  -46.9587  -60.8519 O.2       9 UNK        -0.5270 
     30 CA         27.4508  -49.0181  -59.7450 C.3       8 UNK         0.0284 
     31 CB         28.8531  -49.1432  -60.3686 C.3       8 UNK        -0.1977 
     32 N          27.5045  -49.5645  -58.3889 N.am      8 UNK        -0.4342 
     33 C          26.6550  -50.4668  -57.8806 C.2       8 UNK         0.5039 
     34 O          25.7289  -50.9685  -58.5193 O.2       8 UNK        -0.5547 
     35 CA         26.8572  -50.8877  -56.4101 C.3       7 UNK         0.0281 
     36 CB         27.5732  -52.2465  -56.3406 C.3       7 UNK        -0.1963 
     37 N          27.5958  -49.9179  -55.5950 N.am      7 UNK        -0.4444 
     38 C          27.2101  -48.6575  -55.3568 C.2       7 UNK         0.5104 
     39 O          26.1558  -48.1777  -55.7685 O.2       7 UNK        -0.5100 
     40 CA         28.2028  -47.7546  -54.6077 C.3       6 UNK         0.0396 
     41 CB         28.0503  -47.9273  -53.0890 C.3       6 UNK        -0.1801 
     42 N          29.6014  -47.9735  -54.9941 N.am      6 UNK        -0.4747 
     43 C          30.0913  -47.8663  -56.2405 C.2       6 UNK         0.5012 
     44 O          29.4079  -47.5782  -57.2213 O.2       6 UNK        -0.5003 
     45 CA         31.5858  -48.1819  -56.4198 C.3       5 UNK         0.0782 
     46 C46        32.4813  -47.0235  -55.9019 C.3       11 UNK        -0.0868 
     47 S47        33.0142  -45.8697  -57.2107 S.3       11 UNK        -0.2515 
     48 C48        31.6054  -44.7205  -57.3702 C.3       11 UNK         0.0199 
     49 N          31.8914  -49.4514  -55.7585 N.am      5 UNK        -0.4607 
     50 C          31.5806  -50.6595  -56.2488 C.2       4 UNK         0.5031 
     51 O          31.1060  -50.8389  -57.3698 O.2       4 UNK        -0.5119 
     52 CA         31.8214  -51.8743  -55.3321 C.3       4 UNK         0.0263 
     53 CB         33.1933  -52.5021  -55.6251 C.3       4 UNK        -0.1967 
     54 N          31.7315  -51.5532  -53.9043 N.am      4 UNK        -0.4237 
     55 C          30.6052  -51.1851  -53.2760 C.2       3 UNK         0.4908 
     56 O          29.5036  -51.1413  -53.8216 O.2       3 UNK        -0.5102 
     57 CA         30.7401  -50.7297  -51.8100 C.3       3 UNK         0.0241 
     58 CB         30.6046  -51.9300  -50.8601 C.3       3 UNK        -0.1971 
     59 N          31.9880  -50.0095  -51.5210 N.am      3 UNK        -0.4139 
     60 C          32.3968  -48.8993  -52.1522 C.2       2 UNK         0.5016 
     61 O          31.7479  -48.3530  -53.0488 O.2       2 UNK        -0.5319 
     62 CA         33.7864  -48.3622  -51.7664 C.3       2 UNK         0.0286 
     63 CB         34.8825  -49.3924  -52.0964 C.3       2 UNK        -0.1963 
     64 N          34.0939  -47.1297  -52.4920 N.am      2 UNK        -0.4790 
     65 C          33.7197  -45.8948  -52.1317 C.2       1 UNK         0.5024 
     66 O          33.1359  -45.6473  -51.0749 O.2       1 UNK        -0.4888 
     67 H67        36.7033  -45.6491  -55.9892 H         1 UNK         0.0892 
     68 H68        38.0395  -44.8548  -55.1543 H         1 UNK         0.0892 
     69 H69        37.7519  -46.5810  -54.9186 H         1 UNK         0.0892 
     70 H70        34.7503  -45.1436  -55.0709 H         1 UNK         0.3107 
     71 H71        33.1137  -44.6820  -53.7161 H         1 UNK         0.0773 
     72 H72        35.0722  -43.4311  -51.7348 H         1 UNK         0.0680 
     73 H73        33.3634  -43.1074  -51.8437 H         1 UNK         0.0680 
     74 H74        33.0224  -40.4729  -54.6002 H         1 UNK         0.0650 
     75 H75        32.5832  -40.8518  -52.9513 H         1 UNK         0.0650 
     76 H76        33.0629  -42.7260  -56.2067 H         1 UNK         0.1397 
     77 H77        29.4995  -45.0481  -55.6680 H         1 UNK         0.1363 
     78 H78        30.6026  -42.1264  -52.7408 H         1 UNK         0.1355 
     79 H79        28.5312  -45.0415  -53.3528 H         1 UNK         0.0707 
     80 H80        28.7966  -43.6960  -52.2801 H         1 UNK         0.0707 
     81 H81        26.3137  -45.3000  -53.4725 H         1 UNK         0.1034 
     82 H82        25.2966  -44.0479  -52.8487 H         1 UNK         0.1034 
     83 H83        24.3594  -45.4208  -54.7665 H         1 UNK         0.0482 
     84 H84        23.2080  -41.8834  -56.2676 H         1 UNK         0.3460 
     85 H85        24.5618  -42.7673  -56.9273 H         1 UNK         0.3460 
     86 H86        26.6689  -44.4281  -56.1943 H         1 UNK         0.2989 
     87 H87        25.6661  -45.2565  -59.3390 H         1 UNK         0.0559 
     88 H88        27.2610  -43.6548  -58.2017 H         1 UNK         0.0848 
     89 H89        28.0816  -44.7540  -59.2893 H         1 UNK         0.0848 
     90 H90        28.1592  -45.0332  -57.5595 H         1 UNK         0.0848 
     91 H91        26.5604  -47.5427  -57.7730 H         1 UNK         0.3144 
     92 H92        26.7548  -49.5926  -60.3594 H         1 UNK         0.0727 
     93 H93        29.1968  -50.1778  -60.3664 H         1 UNK         0.0790 
     94 H94        29.5886  -48.5461  -59.8280 H         1 UNK         0.0790 
     95 H95        28.8556  -48.8047  -61.4055 H         1 UNK         0.0790 
     96 H96        28.2232  -49.1706  -57.7898 H         1 UNK         0.3215 
     97 H97        25.8650  -50.9983  -55.9677 H         1 UNK         0.0863 
     98 H98        27.6348  -52.6111  -55.3151 H         1 UNK         0.0808 
     99 H99        28.5878  -52.1861  -56.7366 H         1 UNK         0.0808 
    100 H100       27.0400  -53.0014  -56.9201 H         1 UNK         0.0808 
    101 H101       28.4445  -50.2525  -55.1439 H         1 UNK         0.3118 
    102 H102       27.9564  -46.7238  -54.8653 H         1 UNK         0.0546 
    103 H103       28.1919  -48.9645  -52.7872 H         1 UNK         0.0828 
    104 H104       27.0524  -47.6325  -52.7627 H         1 UNK         0.0828 
    105 H105       28.7684  -47.3191  -52.5388 H         1 UNK         0.0828 
    106 H106       30.2542  -48.1985  -54.2464 H         1 UNK         0.3005 
    107 H107       31.7658  -48.3167  -57.4894 H         1 UNK         0.1257 
    108 H108       33.4033  -47.4347  -55.4888 H         1 UNK         0.0775 
    109 H109       32.0260  -46.4777  -55.0738 H         1 UNK         0.0775 
    110 H110       31.8303  -44.0002  -58.1580 H         1 UNK         0.0840 
    111 H111       30.7270  -45.2692  -57.7116 H         1 UNK         0.0840 
    112 H112       32.1976  -49.3790  -54.7968 H         1 UNK         0.2987 
    113 H113       31.0498  -52.6132  -55.5597 H         1 UNK         0.0785 
    114 H114       33.2795  -52.7762  -56.6776 H         1 UNK         0.0798 
    115 H115       33.3469  -53.4109  -55.0427 H         1 UNK         0.0798 
    116 H116       34.0099  -51.8149  -55.3997 H         1 UNK         0.0798 
    117 H117       32.5912  -51.5734  -53.3758 H         1 UNK         0.3079 
    118 H118       29.9179  -50.0423  -51.6051 H         1 UNK         0.0794 
    119 H119       30.5926  -51.6121  -49.8173 H         1 UNK         0.0786 
    120 H120       31.4219  -52.6414  -50.9859 H         1 UNK         0.0786 
    121 H121       29.6731  -52.4681  -51.0424 H         1 UNK         0.0786 
    122 H122       32.5746  -50.4001  -50.7974 H         1 UNK         0.3032 
    123 H123       33.7911  -48.1624  -50.6923 H         1 UNK         0.1094 
    124 H124       34.8756  -49.6692  -53.1517 H         1 UNK         0.0794 
    125 H125       35.8731  -49.0011  -51.8627 H         1 UNK         0.0794 
    126 H126       34.7613  -50.3082  -51.5168 H         1 UNK         0.0794 
    127 H127       34.5545  -47.2361  -53.3826 H         1 UNK         0.3016 
@<TRIPOS>BOND
     1    1    2 1    
     2    1   67 1    
     3    1   68 1    
     4    1   69 1    
     5    2    3 2    
     6    2    4 am   BACKBONE|DICT|INTERRES
     7    4    5 1    
     8    4   70 1    
     9    5    6 1    
    10    5   65 1    
    11    5   71 1    
    12    6    7 1    
    13    6   72 1    
    14    6   73 1    
    15    7    8 1    
    16    8    9 1    
    17    8   74 1    
    18    8   75 1    
    19    9   10 ar   
    20    9   14 ar   
    21   10   11 ar   
    22   10   76 1    
    23   11   12 ar   
    24   11   48 1    
    25   12   13 ar   
    26   12   77 1    
    27   13   14 ar   
    28   13   15 1    
    29   14   78 1    
    30   15   16 1    
    31   15   79 1    
    32   15   80 1    
    33   16   17 1    
    34   17   18 1    
    35   17   81 1    
    36   17   82 1    
    37   18   19 1    
    38   18   22 1    
    39   18   83 1    
    40   19   20 am   BACKBONE|DICT|INTERRES
    41   19   21 2    
    42   20   84 1    
    43   20   85 1    
    44   22   23 am   BACKBONE|DICT|INTERRES
    45   22   86 1    
    46   23   24 2    
    47   23   25 1    
    48   25   26 1    
    49   25   27 1    
    50   25   87 1    
    51   26   88 1    
    52   26   89 1    
    53   26   90 1    
    54   27   28 am   BACKBONE|DICT|INTERRES
    55   27   91 1    
    56   28   29 2    
    57   28   30 1    
    58   30   31 1    
    59   30   32 1    
    60   30   92 1    
    61   31   93 1    
    62   31   94 1    
    63   31   95 1    
    64   32   33 am   BACKBONE|DICT|INTERRES
    65   32   96 1    
    66   33   34 2    
    67   33   35 1    
    68   35   36 1    
    69   35   37 1    
    70   35   97 1    
    71   36   98 1    
    72   36   99 1    
    73   36  100 1    
    74   37   38 am   BACKBONE|DICT|INTERRES
    75   37  101 1    
    76   38   39 2    
    77   38   40 1    
    78   40   41 1    
    79   40   42 1    
    80   40  102 1    
    81   41  103 1    
    82   41  104 1    
    83   41  105 1    
    84   42   43 am   BACKBONE|DICT|INTERRES
    85   42  106 1    
    86   43   44 2    
    87   43   45 1    
    88   45   46 1    
    89   45   49 1    
    90   45  107 1    
    91   46   47 1    
    92   46  108 1    
    93   46  109 1    
    94   47   48 1    
    95   48  110 1    
    96   48  111 1    
    97   49   50 am   BACKBONE|DICT|INTERRES
    98   49  112 1    
    99   50   51 2    
   100   50   52 1    
   101   52   53 1    
   102   52   54 1    
   103   52  113 1    
   104   53  114 1    
   105   53  115 1    
   106   53  116 1    
   107   54   55 am   BACKBONE|DICT|INTERRES
   108   54  117 1    
   109   55   56 2    
   110   55   57 1    
   111   57   58 1    
   112   57   59 1    
   113   57  118 1    
   114   58  119 1    
   115   58  120 1    
   116   58  121 1    
   117   59   60 am   BACKBONE|DICT|INTERRES
   118   59  122 1    
   119   60   61 2    
   120   60   62 1    
   121   62   63 1    
   122   62   64 1    
   123   62  123 1    
   124   63  124 1    
   125   63  125 1    
   126   63  126 1    
   127   64   65 am   BACKBONE|DICT|INTERRES
   128   64  127 1    
   129   65   66 2    
@<TRIPOS>SUBSTRUCTURE
     1 UNK         1 GROUP             0       ****    0 ROOT    
