@<TRIPOS>MOLECULE
3R134
127   129    1
SMALL
USER_CHARGES


@<TRIPOS>ATOM
      1 CA         36.6824  -43.4147  -57.2812 C.3       0 UNK        -0.1968 
      2 C          35.8974  -44.5600  -56.6591 C.2       0 UNK         0.4852 
      3 O          35.3431  -45.3882  -57.3849 O.2       0 UNK        -0.5359 
      4 N          35.8448  -44.6175  -55.3217 N.am      1 UNK        -0.4300 
      5 CA         35.1525  -45.6520  -54.5484 C.3       1 UNK         0.0863 
      6 C6         34.7788  -45.1645  -53.1258 C.3       11 UNK        -0.0953 
      7 S7         33.3979  -43.9772  -53.1571 S.3       11 UNK        -0.2369 
      8 C8         32.0184  -45.1561  -53.2712 C.3       11 UNK         0.0226 
      9 C9         30.6705  -44.4857  -53.0855 C.ar      11 UNK        -0.0699 
     10 C10        30.0618  -44.4959  -51.8303 C.ar      11 UNK        -0.0804 
     11 C11        28.7716  -43.9885  -51.6673 C.ar      11 UNK        -0.0871 
     12 C12        28.1110  -43.4229  -52.7608 C.ar      11 UNK        -0.1008 
     13 C13        28.7168  -43.3793  -54.0206 C.ar      11 UNK        -0.0735 
     14 C14        30.0019  -43.9193  -54.1744 C.ar      11 UNK        -0.0945 
     15 C15        27.9127  -42.7856  -55.1772 C.3       11 UNK         0.0169 
     16 S16        28.8390  -42.4702  -56.7189 S.3       11 UNK        -0.2669 
     17 C17        27.4805  -41.8832  -57.7931 C.3       11 UNK        -0.0850 
     18 CA         27.0148  -42.9245  -58.8464 C.3       10 UNK         0.0855 
     19 C          27.9797  -43.0091  -60.0671 C.2       10 UNK         0.5543 
     20 N          28.5253  -44.1664  -60.4207 N.am      10 UNK        -0.7343 
     21 O          28.2236  -41.9988  -60.7226 O.2       10 UNK        -0.5027 
     22 N          26.6857  -44.2150  -58.2213 N.am      10 UNK        -0.4495 
     23 C          25.8128  -45.1070  -58.7024 C.2       10 UNK         0.4903 
     24 O          25.1002  -44.8997  -59.6861 O.2       10 UNK        -0.4860 
     25 CA         25.7243  -46.4559  -57.9554 C.3       9 UNK         0.0227 
     26 CB         25.1017  -47.5694  -58.8231 C.3       9 UNK        -0.1964 
     27 N          26.9942  -46.9253  -57.3811 N.am      9 UNK        -0.4231 
     28 C          28.1593  -47.1081  -58.0253 C.2       9 UNK         0.5014 
     29 O          28.3627  -46.7821  -59.1952 O.2       9 UNK        -0.5270 
     30 CA         29.2847  -47.7938  -57.2346 C.3       8 UNK         0.0284 
     31 CB         29.9186  -46.8277  -56.2206 C.3       8 UNK        -0.1977 
     32 N          28.8199  -48.9960  -56.5430 N.am      8 UNK        -0.4342 
     33 C          28.3658  -50.1088  -57.1377 C.2       8 UNK         0.5039 
     34 O          28.3600  -50.2882  -58.3560 O.2       8 UNK        -0.5547 
     35 CA         27.8055  -51.2021  -56.2157 C.3       7 UNK         0.0281 
     36 CB         28.9320  -52.0725  -55.6376 C.3       7 UNK        -0.1963 
     37 N          27.0241  -50.6235  -55.1226 N.am      7 UNK        -0.4444 
     38 C          25.7344  -50.2758  -55.2188 C.2       7 UNK         0.5104 
     39 O          25.0439  -50.4743  -56.2185 O.2       7 UNK        -0.5100 
     40 CA         25.0951  -49.5996  -53.9927 C.3       6 UNK         0.0396 
     41 CB         24.3319  -50.6343  -53.1505 C.3       6 UNK        -0.1801 
     42 N          26.0530  -48.8956  -53.1352 N.am      6 UNK        -0.4747 
     43 C          26.6658  -47.7482  -53.4598 C.2       6 UNK         0.5012 
     44 O          26.5274  -47.1773  -54.5430 O.2       6 UNK        -0.5003 
     45 CA         27.6250  -47.1661  -52.4018 C.3       5 UNK         0.0782 
     46 C46        26.8087  -46.4872  -51.2649 C.3       11 UNK        -0.0868 
     47 S47        27.8254  -45.8692  -49.8764 S.3       11 UNK        -0.2515 
     48 C48        28.0693  -44.1190  -50.3254 C.3       11 UNK         0.0199 
     49 N          28.6139  -48.1270  -51.8861 N.am      5 UNK        -0.4607 
     50 C          29.3858  -48.9571  -52.6009 C.2       4 UNK         0.5031 
     51 O          29.2560  -49.1456  -53.8106 O.2       4 UNK        -0.5119 
     52 CA         30.4486  -49.7438  -51.8125 C.3       4 UNK         0.0263 
     53 CB         29.7790  -50.8446  -50.9717 C.3       4 UNK        -0.1967 
     54 N          31.4631  -50.3670  -52.6712 N.am      4 UNK        -0.4237 
     55 C          32.3620  -49.7167  -53.4233 C.2       3 UNK         0.4908 
     56 O          32.4772  -48.4882  -53.4641 O.2       3 UNK        -0.5102 
     57 CA         33.2958  -50.5983  -54.2676 C.3       3 UNK         0.0241 
     58 CB         32.5284  -51.3521  -55.3701 C.3       3 UNK        -0.1971 
     59 N          34.3171  -49.7545  -54.8788 N.am      3 UNK        -0.4139 
     60 C          35.5684  -50.1157  -55.1876 C.2       2 UNK         0.5016 
     61 O          36.0122  -51.2523  -55.0179 O.2       2 UNK        -0.5319 
     62 CA         36.4852  -49.0354  -55.7983 C.3       2 UNK         0.0286 
     63 CB         36.7287  -49.3153  -57.2906 C.3       2 UNK        -0.1963 
     64 N          35.9482  -47.6787  -55.6546 N.am      2 UNK        -0.4790 
     65 C          35.9630  -46.9631  -54.5236 C.2       1 UNK         0.5024 
     66 O          36.5626  -47.3111  -53.5049 O.2       1 UNK        -0.4888 
     67 H67        36.0317  -42.8186  -57.9204 H         1 UNK         0.0892 
     68 H68        37.4954  -43.8060  -57.8920 H         1 UNK         0.0892 
     69 H69        37.1114  -42.7562  -56.5261 H         1 UNK         0.0892 
     70 H70        36.3297  -43.9189  -54.7765 H         1 UNK         0.3107 
     71 H71        34.2211  -45.8916  -55.0655 H         1 UNK         0.0773 
     72 H72        35.6362  -44.6989  -52.6367 H         1 UNK         0.0680 
     73 H73        34.4872  -45.9991  -52.4846 H         1 UNK         0.0680 
     74 H74        32.0456  -45.6594  -54.2380 H         1 UNK         0.0650 
     75 H75        32.1431  -45.9374  -52.5198 H         1 UNK         0.0650 
     76 H76        30.5687  -44.9498  -50.9895 H         1 UNK         0.1397 
     77 H77        27.1078  -43.0370  -52.6383 H         1 UNK         0.1363 
     78 H78        30.4854  -43.9274  -55.1403 H         1 UNK         0.1355 
     79 H79        27.0839  -43.4606  -55.3955 H         1 UNK         0.0707 
     80 H80        27.4702  -41.8433  -54.8499 H         1 UNK         0.0707 
     81 H81        27.7952  -40.9553  -58.2747 H         1 UNK         0.1034 
     82 H82        26.6290  -41.5992  -57.1730 H         1 UNK         0.1034 
     83 H83        26.0864  -42.5309  -59.2648 H         1 UNK         0.0482 
     84 H84        28.3370  -45.0221  -59.9055 H         1 UNK         0.3460 
     85 H85        29.1389  -44.1934  -61.2188 H         1 UNK         0.3460 
     86 H86        27.2597  -44.4761  -57.4335 H         1 UNK         0.2989 
     87 H87        25.0581  -46.2871  -57.1083 H         1 UNK         0.0559 
     88 H88        24.0984  -47.2989  -59.1542 H         1 UNK         0.0848 
     89 H89        25.0160  -48.5033  -58.2673 H         1 UNK         0.0848 
     90 H90        25.6994  -47.7650  -59.7141 H         1 UNK         0.0848 
     91 H91        26.9499  -47.1704  -56.3936 H         1 UNK         0.3144 
     92 H92        30.0564  -48.0970  -57.9451 H         1 UNK         0.0727 
     93 H93        30.7618  -47.2918  -55.7080 H         1 UNK         0.0790 
     94 H94        29.2040  -46.5110  -55.4599 H         1 UNK         0.0790 
     95 H95        30.2912  -45.9303  -56.7162 H         1 UNK         0.0790 
     96 H96        28.8607  -48.9790  -55.5238 H         1 UNK         0.3215 
     97 H97        27.1604  -51.8463  -56.8178 H         1 UNK         0.0863 
     98 H98        28.5302  -52.9136  -55.0726 H         1 UNK         0.0808 
     99 H99        29.5784  -51.5026  -54.9715 H         1 UNK         0.0808 
    100 H100       29.5567  -52.4832  -56.4320 H         1 UNK         0.0808 
    101 H101       27.5352  -50.3553  -54.2911 H         1 UNK         0.3118 
    102 H102       24.3744  -48.8678  -54.3642 H         1 UNK         0.0546 
    103 H103       23.5877  -51.1560  -53.7540 H         1 UNK         0.0828 
    104 H104       23.8007  -50.1611  -52.3245 H         1 UNK         0.0828 
    105 H105       24.9997  -51.3893  -52.7339 H         1 UNK         0.0828 
    106 H106       26.2480  -49.3060  -52.2328 H         1 UNK         0.3005 
    107 H107       28.2010  -46.3960  -52.9166 H         1 UNK         0.1257 
    108 H108       26.0929  -47.1917  -50.8371 H         1 UNK         0.0775 
    109 H109       26.2128  -45.6636  -51.6634 H         1 UNK         0.0775 
    110 H110       27.1037  -43.6108  -50.3331 H         1 UNK         0.0840 
    111 H111       28.6689  -43.6318  -49.5553 H         1 UNK         0.0840 
    112 H112       28.7811  -48.0566  -50.8924 H         1 UNK         0.2987 
    113 H113       30.9586  -49.0455  -51.1455 H         1 UNK         0.0785 
    114 H114       29.2509  -51.5650  -51.5982 H         1 UNK         0.0798 
    115 H115       29.0525  -50.4268  -50.2736 H         1 UNK         0.0798 
    116 H116       30.5119  -51.3911  -50.3776 H         1 UNK         0.0798 
    117 H117       31.4372  -51.3743  -52.7244 H         1 UNK         0.3079 
    118 H118       33.7772  -51.3155  -53.5991 H         1 UNK         0.0794 
    119 H119       31.9242  -50.6752  -55.9762 H         1 UNK         0.0786 
    120 H120       31.8624  -52.1004  -54.9413 H         1 UNK         0.0786 
    121 H121       33.2077  -51.8818  -56.0383 H         1 UNK         0.0786 
    122 H122       34.0463  -48.7851  -54.9788 H         1 UNK         0.3032 
    123 H123       37.4434  -49.0911  -55.2764 H         1 UNK         0.1094 
    124 H124       35.8022  -49.2763  -57.8651 H         1 UNK         0.0794 
    125 H125       37.4221  -48.5929  -57.7217 H         1 UNK         0.0794 
    126 H126       37.1621  -50.3056  -57.4374 H         1 UNK         0.0794 
    127 H127       35.5082  -47.2619  -56.4695 H         1 UNK         0.3016 
@<TRIPOS>BOND
     1    1    2 1    
     2    1   67 1    
     3    1   68 1    
     4    1   69 1    
     5    2    3 2    
     6    2    4 am   BACKBONE|DICT|INTERRES
     7    4    5 1    
     8    4   70 1    
     9    5    6 1    
    10    5   65 1    
    11    5   71 1    
    12    6    7 1    
    13    6   72 1    
    14    6   73 1    
    15    7    8 1    
    16    8    9 1    
    17    8   74 1    
    18    8   75 1    
    19    9   10 ar   
    20    9   14 ar   
    21   10   11 ar   
    22   10   76 1    
    23   11   12 ar   
    24   11   48 1    
    25   12   13 ar   
    26   12   77 1    
    27   13   14 ar   
    28   13   15 1    
    29   14   78 1    
    30   15   16 1    
    31   15   79 1    
    32   15   80 1    
    33   16   17 1    
    34   17   18 1    
    35   17   81 1    
    36   17   82 1    
    37   18   19 1    
    38   18   22 1    
    39   18   83 1    
    40   19   20 am   BACKBONE|DICT|INTERRES
    41   19   21 2    
    42   20   84 1    
    43   20   85 1    
    44   22   23 am   BACKBONE|DICT|INTERRES
    45   22   86 1    
    46   23   24 2    
    47   23   25 1    
    48   25   26 1    
    49   25   27 1    
    50   25   87 1    
    51   26   88 1    
    52   26   89 1    
    53   26   90 1    
    54   27   28 am   BACKBONE|DICT|INTERRES
    55   27   91 1    
    56   28   29 2    
    57   28   30 1    
    58   30   31 1    
    59   30   32 1    
    60   30   92 1    
    61   31   93 1    
    62   31   94 1    
    63   31   95 1    
    64   32   33 am   BACKBONE|DICT|INTERRES
    65   32   96 1    
    66   33   34 2    
    67   33   35 1    
    68   35   36 1    
    69   35   37 1    
    70   35   97 1    
    71   36   98 1    
    72   36   99 1    
    73   36  100 1    
    74   37   38 am   BACKBONE|DICT|INTERRES
    75   37  101 1    
    76   38   39 2    
    77   38   40 1    
    78   40   41 1    
    79   40   42 1    
    80   40  102 1    
    81   41  103 1    
    82   41  104 1    
    83   41  105 1    
    84   42   43 am   BACKBONE|DICT|INTERRES
    85   42  106 1    
    86   43   44 2    
    87   43   45 1    
    88   45   46 1    
    89   45   49 1    
    90   45  107 1    
    91   46   47 1    
    92   46  108 1    
    93   46  109 1    
    94   47   48 1    
    95   48  110 1    
    96   48  111 1    
    97   49   50 am   BACKBONE|DICT|INTERRES
    98   49  112 1    
    99   50   51 2    
   100   50   52 1    
   101   52   53 1    
   102   52   54 1    
   103   52  113 1    
   104   53  114 1    
   105   53  115 1    
   106   53  116 1    
   107   54   55 am   BACKBONE|DICT|INTERRES
   108   54  117 1    
   109   55   56 2    
   110   55   57 1    
   111   57   58 1    
   112   57   59 1    
   113   57  118 1    
   114   58  119 1    
   115   58  120 1    
   116   58  121 1    
   117   59   60 am   BACKBONE|DICT|INTERRES
   118   59  122 1    
   119   60   61 2    
   120   60   62 1    
   121   62   63 1    
   122   62   64 1    
   123   62  123 1    
   124   63  124 1    
   125   63  125 1    
   126   63  126 1    
   127   64   65 am   BACKBONE|DICT|INTERRES
   128   64  127 1    
   129   65   66 2    
@<TRIPOS>SUBSTRUCTURE
     1 UNK         1 GROUP             0       ****    0 ROOT    
