@<TRIPOS>MOLECULE
3R134
127   129    1
SMALL
USER_CHARGES


@<TRIPOS>ATOM
      1 CA         32.6644  -45.9245  -49.7497 C.3       0 UNK        -0.1968 
      2 C          33.3829  -46.2333  -51.0534 C.2       0 UNK         0.4852 
      3 O          32.8249  -46.9067  -51.9222 O.2       0 UNK        -0.5359 
      4 N          34.6313  -45.7598  -51.1770 N.am      1 UNK        -0.4300 
      5 CA         35.5427  -45.9937  -52.3062 C.3       1 UNK         0.0863 
      6 C6         35.0794  -45.2994  -53.6207 C.3       11 UNK        -0.0953 
      7 S7         34.9568  -43.4915  -53.4131 S.3       11 UNK        -0.2369 
      8 C8         34.1172  -42.9852  -54.9540 C.3       11 UNK         0.0226 
      9 C9         32.6086  -43.2376  -54.9945 C.ar      11 UNK        -0.0699 
     10 C10        31.8138  -43.1983  -53.8407 C.ar      11 UNK        -0.0804 
     11 C11        30.4301  -43.3951  -53.9153 C.ar      11 UNK        -0.0871 
     12 C12        29.8372  -43.6289  -55.1580 C.ar      11 UNK        -0.1008 
     13 C13        30.6129  -43.6580  -56.3195 C.ar      11 UNK        -0.0735 
     14 C14        31.9939  -43.4585  -56.2320 C.ar      11 UNK        -0.0945 
     15 C15        29.9491  -43.9006  -57.6648 C.3       11 UNK         0.0169 
     16 S16        29.0470  -42.4191  -58.2175 S.3       11 UNK        -0.2669 
     17 C17        28.1876  -43.0426  -59.7022 C.3       11 UNK        -0.0850 
     18 CA         26.7079  -43.4201  -59.4222 C.3       10 UNK         0.0855 
     19 C          25.9511  -43.7195  -60.7510 C.2       10 UNK         0.5543 
     20 N          25.4674  -44.9324  -60.9956 N.am      10 UNK        -0.7343 
     21 O          25.7971  -42.8245  -61.5783 O.2       10 UNK        -0.5027 
     22 N          26.6159  -44.4883  -58.4178 N.am      10 UNK        -0.4495 
     23 C          25.5291  -44.8107  -57.7071 C.2       10 UNK         0.4903 
     24 O          24.4797  -44.1659  -57.7271 O.2       10 UNK        -0.4860 
     25 CA         25.6465  -46.0789  -56.8341 C.3       9 UNK         0.0227 
     26 CB         24.2827  -46.7476  -56.5659 C.3       9 UNK        -0.1964 
     27 N          26.6101  -47.0623  -57.3531 N.am      9 UNK        -0.4231 
     28 C          26.5948  -47.6582  -58.5570 C.2       9 UNK         0.5014 
     29 O          25.7359  -47.4536  -59.4156 O.2       9 UNK        -0.5270 
     30 CA         27.7529  -48.6110  -58.8746 C.3       8 UNK         0.0284 
     31 CB         29.0030  -47.8197  -59.3000 C.3       8 UNK        -0.1977 
     32 N          28.0731  -49.4608  -57.7253 N.am      8 UNK        -0.4342 
     33 C          27.8935  -50.7873  -57.6919 C.2       8 UNK         0.5039 
     34 O          27.4526  -51.4464  -58.6351 O.2       8 UNK        -0.5547 
     35 CA         28.2800  -51.5197  -56.3972 C.3       7 UNK         0.0281 
     36 CB         29.7651  -51.9173  -56.4247 C.3       7 UNK        -0.1963 
     37 N          27.9969  -50.7670  -55.1727 N.am      7 UNK        -0.4444 
     38 C          26.7650  -50.5412  -54.6917 C.2       7 UNK         0.5104 
     39 O          25.7304  -50.8501  -55.2833 O.2       7 UNK        -0.5100 
     40 CA         26.6665  -49.8858  -53.3061 C.3       6 UNK         0.0396 
     41 CB         26.9903  -50.9084  -52.2041 C.3       6 UNK        -0.1801 
     42 N          27.5778  -48.7496  -53.1918 N.am      6 UNK        -0.4747 
     43 C          27.2160  -47.4621  -53.2956 C.2       6 UNK         0.5012 
     44 O          26.0522  -47.0835  -53.4264 O.2       6 UNK        -0.5003 
     45 CA         28.3484  -46.4121  -53.2552 C.3       5 UNK         0.0782 
     46 C46        28.4699  -45.8254  -51.8260 C.3       11 UNK        -0.0868 
     47 S47        29.8930  -44.7191  -51.5439 S.3       11 UNK        -0.2515 
     48 C48        29.5782  -43.3146  -52.6556 C.3       11 UNK         0.0199 
     49 N          29.6198  -46.9320  -53.7700 N.am      5 UNK        -0.4607 
     50 C          29.8095  -47.3771  -55.0190 C.2       4 UNK         0.5031 
     51 O          28.9355  -47.3794  -55.8857 O.2       4 UNK        -0.5119 
     52 CA         31.1755  -47.9865  -55.3487 C.3       4 UNK         0.0263 
     53 CB         32.0983  -46.9371  -55.9784 C.3       4 UNK        -0.1967 
     54 N          31.8397  -48.5878  -54.1935 N.am      4 UNK        -0.4237 
     55 C          31.4077  -49.6507  -53.5004 C.2       3 UNK         0.4908 
     56 O          30.3047  -50.1727  -53.6777 O.2       3 UNK        -0.5102 
     57 CA         32.3651  -50.2099  -52.4265 C.3       3 UNK         0.0241 
     58 CB         32.1726  -51.7236  -52.1971 C.3       3 UNK        -0.1971 
     59 N          33.7766  -49.8820  -52.6883 N.am      3 UNK        -0.4139 
     60 C          34.5212  -50.2319  -53.7509 C.2       2 UNK         0.5016 
     61 O          34.1485  -51.0245  -54.6174 O.2       2 UNK        -0.5319 
     62 CA         35.8827  -49.5176  -53.9014 C.3       2 UNK         0.0286 
     63 CB         36.5056  -49.7205  -55.2959 C.3       2 UNK        -0.1963 
     64 N          35.7635  -48.0753  -53.6460 N.am      2 UNK        -0.4790 
     65 C          35.8360  -47.5078  -52.4345 C.2       1 UNK         0.5024 
     66 O          36.0864  -48.1554  -51.4152 O.2       1 UNK        -0.4888 
     67 H67        31.7694  -46.5384  -49.6509 H         1 UNK         0.0892 
     68 H68        32.3638  -44.8776  -49.7227 H         1 UNK         0.0892 
     69 H69        33.3075  -46.1240  -48.8930 H         1 UNK         0.0892 
     70 H70        35.0297  -45.2342  -50.4120 H         1 UNK         0.3107 
     71 H71        36.4960  -45.5465  -52.0206 H         1 UNK         0.0773 
     72 H72        34.1123  -45.6832  -53.9451 H         1 UNK         0.0680 
     73 H73        35.7859  -45.4836  -54.4316 H         1 UNK         0.0680 
     74 H74        34.2817  -41.9162  -55.0932 H         1 UNK         0.0650 
     75 H75        34.6071  -43.4831  -55.7924 H         1 UNK         0.0650 
     76 H76        32.2651  -43.0069  -52.8772 H         1 UNK         0.1397 
     77 H77        28.7677  -43.7673  -55.2324 H         1 UNK         0.1363 
     78 H78        32.5924  -43.4718  -57.1327 H         1 UNK         0.1355 
     79 H79        29.2663  -44.7456  -57.5747 H         1 UNK         0.0707 
     80 H80        30.6886  -44.1773  -58.4179 H         1 UNK         0.0707 
     81 H81        28.7332  -43.8901  -60.1215 H         1 UNK         0.1034 
     82 H82        28.2407  -42.2536  -60.4551 H         1 UNK         0.1034 
     83 H83        26.2196  -42.5401  -58.9988 H         1 UNK         0.0482 
     84 H84        25.5758  -45.6904  -60.3299 H         1 UNK         0.3460 
     85 H85        24.9790  -45.0981  -61.8610 H         1 UNK         0.3460 
     86 H86        27.4215  -45.0870  -58.3377 H         1 UNK         0.2989 
     87 H87        26.0447  -45.7443  -55.8756 H         1 UNK         0.0559 
     88 H88        24.3932  -47.6243  -55.9272 H         1 UNK         0.0848 
     89 H89        23.7975  -47.0628  -57.4902 H         1 UNK         0.0848 
     90 H90        23.6031  -46.0632  -56.0569 H         1 UNK         0.0848 
     91 H91        27.4123  -47.2393  -56.7486 H         1 UNK         0.3144 
     92 H92        27.4422  -49.2190  -59.7270 H         1 UNK         0.0727 
     93 H93        29.8074  -48.4909  -59.6009 H         1 UNK         0.0790 
     94 H94        29.3836  -47.1856  -58.4993 H         1 UNK         0.0790 
     95 H95        28.7853  -47.1748  -60.1526 H         1 UNK         0.0790 
     96 H96        28.4196  -48.9899  -56.8962 H         1 UNK         0.3215 
     97 H97        27.6917  -52.4394  -56.3598 H         1 UNK         0.0863 
     98 H98        30.0351  -52.5052  -55.5471 H         1 UNK         0.0808 
     99 H99        30.4189  -51.0460  -56.4548 H         1 UNK         0.0808 
    100 H100       29.9905  -52.5240  -57.3028 H         1 UNK         0.0808 
    101 H101       28.8035  -50.5127  -54.6039 H         1 UNK         0.3118 
    102 H102       25.6342  -49.5589  -53.1634 H         1 UNK         0.0546 
    103 H103       26.3289  -51.7735  -52.2681 H         1 UNK         0.0828 
    104 H104       26.8596  -50.4743  -51.2129 H         1 UNK         0.0828 
    105 H105       28.0154  -51.2749  -52.2753 H         1 UNK         0.0828 
    106 H106       28.5646  -48.9675  -53.1203 H         1 UNK         0.3005 
    107 H107       28.0407  -45.6087  -53.9256 H         1 UNK         0.1257 
    108 H108       28.5584  -46.6320  -51.0952 H         1 UNK         0.0775 
    109 H109       27.5599  -45.2829  -51.5620 H         1 UNK         0.0775 
    110 H110       28.5158  -43.2549  -52.8962 H         1 UNK         0.0840 
    111 H111       29.8194  -42.3917  -52.1263 H         1 UNK         0.0840 
    112 H112       30.4007  -46.9332  -53.1268 H         1 UNK         0.2987 
    113 H113       31.0117  -48.7768  -56.0828 H         1 UNK         0.0785 
    114 H114       32.2859  -46.1154  -55.2884 H         1 UNK         0.0798 
    115 H115       31.6499  -46.5129  -56.8778 H         1 UNK         0.0798 
    116 H116       33.0580  -47.3665  -56.2659 H         1 UNK         0.0798 
    117 H117       32.6921  -48.1473  -53.8754 H         1 UNK         0.3079 
    118 H118       32.1034  -49.6979  -51.4994 H         1 UNK         0.0794 
    119 H119       32.3362  -52.2961  -53.1106 H         1 UNK         0.0786 
    120 H120       31.1593  -51.9413  -51.8573 H         1 UNK         0.0786 
    121 H121       32.8564  -52.1002  -51.4366 H         1 UNK         0.0786 
    122 H122       34.1874  -49.2151  -52.0458 H         1 UNK         0.3032 
    123 H123       36.5586  -49.9667  -53.1696 H         1 UNK         0.1094 
    124 H124       35.8638  -49.3288  -56.0862 H         1 UNK         0.0794 
    125 H125       37.4743  -49.2264  -55.3735 H         1 UNK         0.0794 
    126 H126       36.6686  -50.7792  -55.5022 H         1 UNK         0.0794 
    127 H127       35.5387  -47.4948  -54.4412 H         1 UNK         0.3016 
@<TRIPOS>BOND
     1    1    2 1    
     2    1   67 1    
     3    1   68 1    
     4    1   69 1    
     5    2    3 2    
     6    2    4 am   BACKBONE|DICT|INTERRES
     7    4    5 1    
     8    4   70 1    
     9    5    6 1    
    10    5   65 1    
    11    5   71 1    
    12    6    7 1    
    13    6   72 1    
    14    6   73 1    
    15    7    8 1    
    16    8    9 1    
    17    8   74 1    
    18    8   75 1    
    19    9   10 ar   
    20    9   14 ar   
    21   10   11 ar   
    22   10   76 1    
    23   11   12 ar   
    24   11   48 1    
    25   12   13 ar   
    26   12   77 1    
    27   13   14 ar   
    28   13   15 1    
    29   14   78 1    
    30   15   16 1    
    31   15   79 1    
    32   15   80 1    
    33   16   17 1    
    34   17   18 1    
    35   17   81 1    
    36   17   82 1    
    37   18   19 1    
    38   18   22 1    
    39   18   83 1    
    40   19   20 am   BACKBONE|DICT|INTERRES
    41   19   21 2    
    42   20   84 1    
    43   20   85 1    
    44   22   23 am   BACKBONE|DICT|INTERRES
    45   22   86 1    
    46   23   24 2    
    47   23   25 1    
    48   25   26 1    
    49   25   27 1    
    50   25   87 1    
    51   26   88 1    
    52   26   89 1    
    53   26   90 1    
    54   27   28 am   BACKBONE|DICT|INTERRES
    55   27   91 1    
    56   28   29 2    
    57   28   30 1    
    58   30   31 1    
    59   30   32 1    
    60   30   92 1    
    61   31   93 1    
    62   31   94 1    
    63   31   95 1    
    64   32   33 am   BACKBONE|DICT|INTERRES
    65   32   96 1    
    66   33   34 2    
    67   33   35 1    
    68   35   36 1    
    69   35   37 1    
    70   35   97 1    
    71   36   98 1    
    72   36   99 1    
    73   36  100 1    
    74   37   38 am   BACKBONE|DICT|INTERRES
    75   37  101 1    
    76   38   39 2    
    77   38   40 1    
    78   40   41 1    
    79   40   42 1    
    80   40  102 1    
    81   41  103 1    
    82   41  104 1    
    83   41  105 1    
    84   42   43 am   BACKBONE|DICT|INTERRES
    85   42  106 1    
    86   43   44 2    
    87   43   45 1    
    88   45   46 1    
    89   45   49 1    
    90   45  107 1    
    91   46   47 1    
    92   46  108 1    
    93   46  109 1    
    94   47   48 1    
    95   48  110 1    
    96   48  111 1    
    97   49   50 am   BACKBONE|DICT|INTERRES
    98   49  112 1    
    99   50   51 2    
   100   50   52 1    
   101   52   53 1    
   102   52   54 1    
   103   52  113 1    
   104   53  114 1    
   105   53  115 1    
   106   53  116 1    
   107   54   55 am   BACKBONE|DICT|INTERRES
   108   54  117 1    
   109   55   56 2    
   110   55   57 1    
   111   57   58 1    
   112   57   59 1    
   113   57  118 1    
   114   58  119 1    
   115   58  120 1    
   116   58  121 1    
   117   59   60 am   BACKBONE|DICT|INTERRES
   118   59  122 1    
   119   60   61 2    
   120   60   62 1    
   121   62   63 1    
   122   62   64 1    
   123   62  123 1    
   124   63  124 1    
   125   63  125 1    
   126   63  126 1    
   127   64   65 am   BACKBONE|DICT|INTERRES
   128   64  127 1    
   129   65   66 2    
@<TRIPOS>SUBSTRUCTURE
     1 UNK         1 GROUP             0       ****    0 ROOT    
