@<TRIPOS>MOLECULE
3R134
127   129    1
SMALL
USER_CHARGES


@<TRIPOS>ATOM
      1 CA         36.6891  -44.7569  -47.7325 C.3       0 UNK        -0.1968 
      2 C          36.8200  -45.0140  -49.2269 C.2       0 UNK         0.4852 
      3 O          37.9006  -45.3848  -49.6894 O.2       0 UNK        -0.5359 
      4 N          35.7319  -44.8126  -49.9818 N.am      1 UNK        -0.4300 
      5 CA         35.6507  -45.0751  -51.4225 C.3       1 UNK         0.0863 
      6 C6         34.5765  -44.1811  -52.1001 C.3       11 UNK        -0.0953 
      7 S7         35.0247  -43.7399  -53.8153 S.3       11 UNK        -0.2369 
      8 C8         34.0748  -42.2076  -54.0638 C.3       11 UNK         0.0226 
      9 C9         32.5997  -42.4938  -54.3032 C.ar      11 UNK        -0.0699 
     10 C10        31.7279  -42.6486  -53.2217 C.ar      11 UNK        -0.0804 
     11 C11        30.3729  -42.9220  -53.4297 C.ar      11 UNK        -0.0871 
     12 C12        29.8852  -42.9950  -54.7391 C.ar      11 UNK        -0.1008 
     13 C13        30.7484  -42.8550  -55.8288 C.ar      11 UNK        -0.0735 
     14 C14        32.1057  -42.6058  -55.6064 C.ar      11 UNK        -0.0945 
     15 C15        30.2096  -42.9991  -57.2416 C.3       11 UNK         0.0169 
     16 S16        29.9419  -44.7512  -57.6389 S.3       11 UNK        -0.2669 
     17 C17        29.2009  -44.6267  -59.2988 C.3       11 UNK        -0.0850 
     18 CA         27.6613  -44.4287  -59.2790 C.3       10 UNK         0.0855 
     19 C          27.1192  -44.3128  -60.7358 C.2       10 UNK         0.5543 
     20 N          26.3327  -45.2575  -61.2402 N.am      10 UNK        -0.7343 
     21 O          27.4231  -43.3405  -61.4224 O.2       10 UNK        -0.5027 
     22 N          26.9855  -45.4373  -58.4479 N.am      10 UNK        -0.4495 
     23 C          25.7026  -45.3886  -58.0630 C.2       10 UNK         0.4903 
     24 O          24.9715  -44.4138  -58.2447 O.2       10 UNK        -0.4860 
     25 CA         25.1413  -46.6539  -57.3808 C.3       9 UNK         0.0227 
     26 CB         23.6138  -46.7963  -57.5479 C.3       9 UNK        -0.1964 
     27 N          25.8300  -47.8829  -57.7985 N.am      9 UNK        -0.4231 
     28 C          25.9343  -48.3737  -59.0443 C.2       9 UNK         0.5014 
     29 O          25.3829  -47.8731  -60.0256 O.2       9 UNK        -0.5270 
     30 CA         26.8536  -49.5870  -59.2533 C.3       8 UNK         0.0284 
     31 CB         28.1538  -49.1478  -59.9512 C.3       8 UNK        -0.1977 
     32 N          27.1963  -50.2558  -57.9936 N.am      8 UNK        -0.4342 
     33 C          26.7857  -51.4830  -57.6502 C.2       8 UNK         0.5039 
     34 O          26.0534  -52.1840  -58.3504 O.2       8 UNK        -0.5547 
     35 CA         27.2839  -52.0420  -56.3081 C.3       7 UNK         0.0281 
     36 CB         28.6675  -52.6927  -56.4719 C.3       7 UNK        -0.1963 
     37 N          27.3340  -51.0556  -55.2266 N.am      7 UNK        -0.4444 
     38 C          26.2548  -50.5559  -54.6074 C.2       7 UNK         0.5104 
     39 O          25.0971  -50.7722  -54.9652 O.2       7 UNK        -0.5100 
     40 CA         26.5060  -49.6916  -53.3627 C.3       6 UNK         0.0396 
     41 CB         26.8601  -50.5781  -52.1573 C.3       6 UNK        -0.1801 
     42 N          27.5868  -48.7341  -53.5894 N.am      6 UNK        -0.4747 
     43 C          27.4076  -47.4385  -53.8845 C.2       6 UNK         0.5012 
     44 O          26.3022  -46.8997  -53.9391 O.2       6 UNK        -0.5003 
     45 CA         28.6749  -46.6078  -54.2005 C.3       5 UNK         0.0782 
     46 C46        29.2234  -45.9182  -52.9224 C.3       11 UNK        -0.0868 
     47 S47        28.2201  -44.4649  -52.4439 S.3       11 UNK        -0.2515 
     48 C48        29.4615  -43.1416  -52.2248 C.3       11 UNK         0.0199 
     49 N          29.7147  -47.3933  -54.8777 N.am      5 UNK        -0.4607 
     50 C          29.5530  -48.0501  -56.0368 C.2       4 UNK         0.5031 
     51 O          28.5146  -48.0316  -56.6976 O.2       4 UNK        -0.5119 
     52 CA         30.7098  -48.9443  -56.5153 C.3       4 UNK         0.0263 
     53 CB         31.6206  -48.1623  -57.4737 C.3       4 UNK        -0.1967 
     54 N          31.5199  -49.5193  -55.4365 N.am      4 UNK        -0.4237 
     55 C          31.0720  -50.2100  -54.3761 C.2       3 UNK         0.4908 
     56 O          29.8861  -50.4933  -54.2006 O.2       3 UNK        -0.5102 
     57 CA         32.1010  -50.6357  -53.3112 C.3       3 UNK         0.0241 
     58 CB         32.2761  -52.1632  -53.3247 C.3       3 UNK        -0.1971 
     59 N          33.4200  -49.9989  -53.4292 N.am      3 UNK        -0.4139 
     60 C          33.6695  -48.6866  -53.3118 C.2       2 UNK         0.5016 
     61 O          32.7949  -47.8360  -53.1239 O.2       2 UNK        -0.5319 
     62 CA         35.1372  -48.2667  -53.5168 C.3       2 UNK         0.0286 
     63 CB         35.4966  -48.2947  -55.0129 C.3       2 UNK        -0.1963 
     64 N          35.4191  -46.9268  -53.0006 N.am      2 UNK        -0.4790 
     65 C          35.4203  -46.5771  -51.7091 C.2       1 UNK         0.5024 
     66 O          35.2442  -47.3786  -50.7865 O.2       1 UNK        -0.4888 
     67 H67        37.4022  -43.9950  -47.4187 H         1 UNK         0.0892 
     68 H68        36.8981  -45.6699  -47.1756 H         1 UNK         0.0892 
     69 H69        35.6895  -44.4167  -47.4625 H         1 UNK         0.0892 
     70 H70        34.8652  -44.5477  -49.5364 H         1 UNK         0.3107 
     71 H71        36.6243  -44.8203  -51.8480 H         1 UNK         0.0773 
     72 H72        34.4704  -43.2473  -51.5455 H         1 UNK         0.0680 
     73 H73        33.5905  -44.6510  -52.0885 H         1 UNK         0.0680 
     74 H74        34.2014  -41.5449  -53.2064 H         1 UNK         0.0650 
     75 H75        34.4926  -41.6756  -54.9197 H         1 UNK         0.0650 
     76 H76        32.1112  -42.5702  -52.2138 H         1 UNK         0.1397 
     77 H77        28.8375  -43.1952  -54.9163 H         1 UNK         0.1363 
     78 H78        32.7787  -42.5032  -56.4467 H         1 UNK         0.1355 
     79 H79        30.8988  -42.5612  -57.9654 H         1 UNK         0.0707 
     80 H80        29.2690  -42.4539  -57.3330 H         1 UNK         0.0707 
     81 H81        29.4541  -45.5396  -59.8414 H         1 UNK         0.1034 
     82 H82        29.6879  -43.8134  -59.8408 H         1 UNK         0.1034 
     83 H83        27.4643  -43.4621  -58.8118 H         1 UNK         0.0482 
     84 H84        26.0603  -46.0657  -60.6917 H         1 UNK         0.3460 
     85 H85        25.9933  -45.1594  -62.1836 H         1 UNK         0.3460 
     86 H86        27.5280  -46.2574  -58.2147 H         1 UNK         0.2989 
     87 H87        25.3452  -46.5358  -56.3177 H         1 UNK         0.0559 
     88 H88        23.2432  -47.6933  -57.0520 H         1 UNK         0.0848 
     89 H89        23.3238  -46.8481  -58.5978 H         1 UNK         0.0848 
     90 H90        23.0909  -45.9460  -57.1086 H         1 UNK         0.0848 
     91 H91        26.4032  -48.3139  -57.0851 H         1 UNK         0.3144 
     92 H92        26.3277  -50.2712  -59.9222 H         1 UNK         0.0727 
     93 H93        28.8063  -49.9995  -60.1439 H         1 UNK         0.0790 
     94 H94        28.7133  -48.4257  -59.3559 H         1 UNK         0.0790 
     95 H95        27.9419  -48.6794  -60.9135 H         1 UNK         0.0790 
     96 H96        27.7839  -49.7298  -57.3547 H         1 UNK         0.3215 
     97 H97        26.5846  -52.8251  -56.0062 H         1 UNK         0.0863 
     98 H98        28.9938  -53.1684  -55.5467 H         1 UNK         0.0808 
     99 H99        29.4280  -51.9669  -56.7586 H         1 UNK         0.0808 
    100 H100       28.6468  -53.4645  -57.2426 H         1 UNK         0.0808 
    101 H101       28.2556  -50.8430  -54.8471 H         1 UNK         0.3118 
    102 H102       25.5775  -49.1673  -53.1265 H         1 UNK         0.0546 
    103 H103       26.0731  -51.3089  -51.9657 H         1 UNK         0.0828 
    104 H104       26.9763  -49.9834  -51.2513 H         1 UNK         0.0828 
    105 H105       27.7875  -51.1305  -52.3150 H         1 UNK         0.0828 
    106 H106       28.5269  -49.1146  -53.6206 H         1 UNK         0.3005 
    107 H107       28.3772  -45.8343  -54.9125 H         1 UNK         0.1257 
    108 H108       30.2522  -45.5954  -53.0881 H         1 UNK         0.0775 
    109 H109       29.2706  -46.6141  -52.0825 H         1 UNK         0.0775 
    110 H110       28.9425  -42.2079  -52.0053 H         1 UNK         0.0840 
    111 H111       30.0535  -43.3802  -51.3397 H         1 UNK         0.0840 
    112 H112       30.6036  -47.4713  -54.4015 H         1 UNK         0.2987 
    113 H113       30.2697  -49.7748  -57.0686 H         1 UNK         0.0785 
    114 H114       32.1153  -47.3300  -56.9708 H         1 UNK         0.0798 
    115 H115       31.0476  -47.7443  -58.3028 H         1 UNK         0.0798 
    116 H116       32.3902  -48.8024  -57.9053 H         1 UNK         0.0798 
    117 H117       32.5107  -49.3359  -55.4800 H         1 UNK         0.3079 
    118 H118       31.6852  -50.3483  -52.3433 H         1 UNK         0.0794 
    119 H119       32.7092  -52.5119  -54.2631 H         1 UNK         0.0786 
    120 H120       31.3170  -52.6690  -53.2017 H         1 UNK         0.0786 
    121 H121       32.9202  -52.4972  -52.5110 H         1 UNK         0.0786 
    122 H122       34.1965  -50.6214  -53.6037 H         1 UNK         0.3032 
    123 H123       35.7741  -48.9756  -52.9823 H         1 UNK         0.1094 
    124 H124       34.8791  -47.6036  -55.5890 H         1 UNK         0.0794 
    125 H125       36.5403  -48.0236  -55.1745 H         1 UNK         0.0794 
    126 H126       35.3573  -49.2894  -55.4382 H         1 UNK         0.0794 
    127 H127       35.5076  -46.1884  -53.6859 H         1 UNK         0.3016 
@<TRIPOS>BOND
     1    1    2 1    
     2    1   67 1    
     3    1   68 1    
     4    1   69 1    
     5    2    3 2    
     6    2    4 am   BACKBONE|DICT|INTERRES
     7    4    5 1    
     8    4   70 1    
     9    5    6 1    
    10    5   65 1    
    11    5   71 1    
    12    6    7 1    
    13    6   72 1    
    14    6   73 1    
    15    7    8 1    
    16    8    9 1    
    17    8   74 1    
    18    8   75 1    
    19    9   10 ar   
    20    9   14 ar   
    21   10   11 ar   
    22   10   76 1    
    23   11   12 ar   
    24   11   48 1    
    25   12   13 ar   
    26   12   77 1    
    27   13   14 ar   
    28   13   15 1    
    29   14   78 1    
    30   15   16 1    
    31   15   79 1    
    32   15   80 1    
    33   16   17 1    
    34   17   18 1    
    35   17   81 1    
    36   17   82 1    
    37   18   19 1    
    38   18   22 1    
    39   18   83 1    
    40   19   20 am   BACKBONE|DICT|INTERRES
    41   19   21 2    
    42   20   84 1    
    43   20   85 1    
    44   22   23 am   BACKBONE|DICT|INTERRES
    45   22   86 1    
    46   23   24 2    
    47   23   25 1    
    48   25   26 1    
    49   25   27 1    
    50   25   87 1    
    51   26   88 1    
    52   26   89 1    
    53   26   90 1    
    54   27   28 am   BACKBONE|DICT|INTERRES
    55   27   91 1    
    56   28   29 2    
    57   28   30 1    
    58   30   31 1    
    59   30   32 1    
    60   30   92 1    
    61   31   93 1    
    62   31   94 1    
    63   31   95 1    
    64   32   33 am   BACKBONE|DICT|INTERRES
    65   32   96 1    
    66   33   34 2    
    67   33   35 1    
    68   35   36 1    
    69   35   37 1    
    70   35   97 1    
    71   36   98 1    
    72   36   99 1    
    73   36  100 1    
    74   37   38 am   BACKBONE|DICT|INTERRES
    75   37  101 1    
    76   38   39 2    
    77   38   40 1    
    78   40   41 1    
    79   40   42 1    
    80   40  102 1    
    81   41  103 1    
    82   41  104 1    
    83   41  105 1    
    84   42   43 am   BACKBONE|DICT|INTERRES
    85   42  106 1    
    86   43   44 2    
    87   43   45 1    
    88   45   46 1    
    89   45   49 1    
    90   45  107 1    
    91   46   47 1    
    92   46  108 1    
    93   46  109 1    
    94   47   48 1    
    95   48  110 1    
    96   48  111 1    
    97   49   50 am   BACKBONE|DICT|INTERRES
    98   49  112 1    
    99   50   51 2    
   100   50   52 1    
   101   52   53 1    
   102   52   54 1    
   103   52  113 1    
   104   53  114 1    
   105   53  115 1    
   106   53  116 1    
   107   54   55 am   BACKBONE|DICT|INTERRES
   108   54  117 1    
   109   55   56 2    
   110   55   57 1    
   111   57   58 1    
   112   57   59 1    
   113   57  118 1    
   114   58  119 1    
   115   58  120 1    
   116   58  121 1    
   117   59   60 am   BACKBONE|DICT|INTERRES
   118   59  122 1    
   119   60   61 2    
   120   60   62 1    
   121   62   63 1    
   122   62   64 1    
   123   62  123 1    
   124   63  124 1    
   125   63  125 1    
   126   63  126 1    
   127   64   65 am   BACKBONE|DICT|INTERRES
   128   64  127 1    
   129   65   66 2    
@<TRIPOS>SUBSTRUCTURE
     1 UNK         1 GROUP             0       ****    0 ROOT    
