@<TRIPOS>MOLECULE
3R134
127   129    1
SMALL
USER_CHARGES


@<TRIPOS>ATOM
      1 CA         33.2318  -51.2611  -56.2582 C.3       0 UNK        -0.1968 
      2 C          33.3566  -50.1375  -55.2413 C.2       0 UNK         0.4852 
      3 O          32.9787  -50.3221  -54.0844 O.2       0 UNK        -0.5359 
      4 N          33.9020  -48.9869  -55.6628 N.am      1 UNK        -0.4300 
      5 CA         34.0246  -47.7323  -54.9015 C.3       1 UNK         0.0863 
      6 C6         34.7635  -46.6410  -55.7146 C.3       11 UNK        -0.0953 
      7 S7         34.0476  -46.3691  -57.3700 S.3       11 UNK        -0.2369 
      8 C8         33.9385  -44.5564  -57.4383 C.3       11 UNK         0.0226 
      9 C9         32.6716  -44.0318  -56.7801 C.ar      11 UNK        -0.0699 
     10 C10        32.7044  -43.5019  -55.4859 C.ar      11 UNK        -0.0804 
     11 C11        31.5515  -42.9515  -54.9159 C.ar      11 UNK        -0.0871 
     12 C12        30.3610  -42.9371  -55.6513 C.ar      11 UNK        -0.1008 
     13 C13        30.3135  -43.4792  -56.9386 C.ar      11 UNK        -0.0735 
     14 C14        31.4708  -44.0293  -57.4954 C.ar      11 UNK        -0.0945 
     15 C15        29.0247  -43.4335  -57.7440 C.3       11 UNK         0.0169 
     16 S16        27.8274  -44.6672  -57.1534 S.3       11 UNK        -0.2669 
     17 C17        26.4420  -43.5878  -56.6427 C.3       11 UNK        -0.0850 
     18 CA         25.1687  -44.3706  -56.2210 C.3       10 UNK         0.0855 
     19 C          24.0251  -43.4051  -55.7956 C.2       10 UNK         0.5543 
     20 N          22.8515  -43.4487  -56.4145 N.am      10 UNK        -0.7343 
     21 O          24.2050  -42.6025  -54.8831 O.2       10 UNK        -0.5027 
     22 N          24.7917  -45.3599  -57.2408 N.am      10 UNK        -0.4495 
     23 C          24.1217  -46.4964  -57.0318 C.2       10 UNK         0.4903 
     24 O          23.6354  -46.8160  -55.9475 O.2       10 UNK        -0.4860 
     25 CA         24.0153  -47.4723  -58.2198 C.3       9 UNK         0.0227 
     26 CB         22.7487  -47.2028  -59.0555 C.3       9 UNK        -0.1964 
     27 N          25.2285  -47.5365  -59.0545 N.am      9 UNK        -0.4231 
     28 C          25.7423  -46.6034  -59.8723 C.2       9 UNK         0.5014 
     29 O          25.2130  -45.5109  -60.0825 O.2       9 UNK        -0.5270 
     30 CA         27.1209  -46.9167  -60.4722 C.3       8 UNK         0.0284 
     31 CB         27.7247  -45.7310  -61.2490 C.3       8 UNK        -0.1977 
     32 N          28.0221  -47.2856  -59.3827 N.am      8 UNK        -0.4342 
     33 C          28.7469  -48.4072  -59.3153 C.2       8 UNK         0.5039 
     34 O          28.8166  -49.2380  -60.2217 O.2       8 UNK        -0.5547 
     35 CA         29.5048  -48.6619  -58.0001 C.3       7 UNK         0.0281 
     36 CB         30.9431  -48.1310  -58.0960 C.3       7 UNK        -0.1963 
     37 N          28.8625  -48.0815  -56.8162 N.am      7 UNK        -0.4444 
     38 C          27.6595  -48.4234  -56.3288 C.2       7 UNK         0.5104 
     39 O          26.9147  -49.2414  -56.8700 O.2       7 UNK        -0.5100 
     40 CA         27.2163  -47.7372  -55.0244 C.3       6 UNK         0.0396 
     41 CB         26.4545  -48.6911  -54.0870 C.3       6 UNK        -0.1801 
     42 N          28.3588  -47.1607  -54.3164 N.am      6 UNK        -0.4747 
     43 C          28.3801  -45.9979  -53.6557 C.2       6 UNK         0.5012 
     44 O          27.3927  -45.2780  -53.5021 O.2       6 UNK        -0.5003 
     45 CA         29.7403  -45.6055  -53.0367 C.3       5 UNK         0.0782 
     46 C46        29.7447  -44.1706  -52.4527 C.3       11 UNK        -0.0868 
     47 S47        31.4489  -43.5738  -52.1992 S.3       11 UNK        -0.2515 
     48 C48        31.6043  -42.3320  -53.5245 C.3       11 UNK         0.0199 
     49 N          30.1426  -46.5932  -52.0278 N.am      5 UNK        -0.4607 
     50 C          30.6370  -47.8076  -52.2888 C.2       4 UNK         0.5031 
     51 O          30.8714  -48.2161  -53.4273 O.2       4 UNK        -0.5119 
     52 CA         30.7905  -48.7468  -51.0912 C.3       4 UNK         0.0263 
     53 CB         29.4584  -49.4786  -50.8276 C.3       4 UNK        -0.1967 
     54 N          31.8597  -49.7100  -51.3449 N.am      4 UNK        -0.4237 
     55 C          32.4476  -50.4563  -50.3992 C.2       3 UNK         0.4908 
     56 O          32.1373  -50.4235  -49.2074 O.2       3 UNK        -0.5102 
     57 CA         33.5894  -51.3795  -50.8434 C.3       3 UNK         0.0241 
     58 CB         33.0514  -52.6135  -51.5881 C.3       3 UNK        -0.1971 
     59 N          34.5378  -50.6536  -51.6860 N.am      3 UNK        -0.4139 
     60 C          35.5756  -49.9471  -51.2147 C.2       2 UNK         0.5016 
     61 O          35.8903  -49.9051  -50.0244 O.2       2 UNK        -0.5319 
     62 CA         36.4182  -49.1539  -52.2304 C.3       2 UNK         0.0286 
     63 CB         37.6848  -49.9396  -52.6073 C.3       2 UNK        -0.1963 
     64 N          35.6897  -48.8084  -53.4525 N.am      2 UNK        -0.4790 
     65 C          34.7106  -47.8947  -53.5282 C.2       1 UNK         0.5024 
     66 O          34.3450  -47.2045  -52.5766 O.2       1 UNK        -0.4888 
     67 H67        32.1847  -51.5370  -56.3799 H         1 UNK         0.0892 
     68 H68        33.6229  -50.9751  -57.2344 H         1 UNK         0.0892 
     69 H69        33.7784  -52.1391  -55.9156 H         1 UNK         0.0892 
     70 H70        34.1966  -48.9135  -56.6263 H         1 UNK         0.3107 
     71 H71        33.0091  -47.3805  -54.7122 H         1 UNK         0.0773 
     72 H72        34.7599  -45.6999  -55.1621 H         1 UNK         0.0680 
     73 H73        35.8134  -46.9071  -55.8522 H         1 UNK         0.0680 
     74 H74        33.9513  -44.2504  -58.4854 H         1 UNK         0.0650 
     75 H75        34.8269  -44.1121  -56.9868 H         1 UNK         0.0650 
     76 H76        33.6311  -43.4967  -54.9287 H         1 UNK         0.1397 
     77 H77        29.4679  -42.4976  -55.2290 H         1 UNK         0.1363 
     78 H78        31.4458  -44.4361  -58.4972 H         1 UNK         0.1355 
     79 H79        28.6026  -42.4290  -57.6908 H         1 UNK         0.0707 
     80 H80        29.2246  -43.6201  -58.8001 H         1 UNK         0.0707 
     81 H81        26.7884  -42.9614  -55.8182 H         1 UNK         0.1034 
     82 H82        26.2079  -42.9120  -57.4675 H         1 UNK         0.1034 
     83 H83        25.4189  -44.9235  -55.3152 H         1 UNK         0.0482 
     84 H84        22.1159  -42.8212  -56.1299 H         1 UNK         0.3460 
     85 H85        22.6970  -44.1078  -57.1602 H         1 UNK         0.3460 
     86 H86        25.1027  -45.1697  -58.1885 H         1 UNK         0.2989 
     87 H87        23.9135  -48.4697  -57.7888 H         1 UNK         0.0559 
     88 H88        21.8537  -47.2807  -58.4368 H         1 UNK         0.0848 
     89 H89        22.6462  -47.9255  -59.8648 H         1 UNK         0.0848 
     90 H90        22.7490  -46.2050  -59.4947 H         1 UNK         0.0848 
     91 H91        25.7907  -48.3649  -58.9020 H         1 UNK         0.3144 
     92 H92        26.9845  -47.7507  -61.1638 H         1 UNK         0.0727 
     93 H93        27.8519  -44.8546  -60.6123 H         1 UNK         0.0790 
     94 H94        27.0823  -45.4411  -62.0815 H         1 UNK         0.0790 
     95 H95        28.6992  -45.9867  -61.6650 H         1 UNK         0.0790 
     96 H96        28.0205  -46.6680  -58.5797 H         1 UNK         0.3215 
     97 H97        29.5469  -49.7433  -57.8532 H         1 UNK         0.0863 
     98 H98        31.5123  -48.3656  -57.1969 H         1 UNK         0.0808 
     99 H99        30.9667  -47.0491  -58.2332 H         1 UNK         0.0808 
    100 H100       31.4712  -48.5782  -58.9392 H         1 UNK         0.0808 
    101 H101       29.3794  -47.3643  -56.3289 H         1 UNK         0.3118 
    102 H102       26.5400  -46.9371  -55.3222 H         1 UNK         0.0546 
    103 H103       27.0744  -49.5354  -53.7833 H         1 UNK         0.0828 
    104 H104       25.5647  -49.0924  -54.5740 H         1 UNK         0.0828 
    105 H105       26.1212  -48.1768  -53.1857 H         1 UNK         0.0828 
    106 H106       29.2088  -47.7207  -54.2972 H         1 UNK         0.3005 
    107 H107       30.4614  -45.6298  -53.8584 H         1 UNK         0.1257 
    108 H108       29.2119  -44.1376  -51.5008 H         1 UNK         0.0775 
    109 H109       29.2209  -43.4712  -53.1050 H         1 UNK         0.0775 
    110 H110       30.8232  -41.5787  -53.4094 H         1 UNK         0.0840 
    111 H111       32.5500  -41.8027  -53.3980 H         1 UNK         0.0840 
    112 H112       29.9461  -46.3435  -51.0695 H         1 UNK         0.2987 
    113 H113       31.0598  -48.1491  -50.2175 H         1 UNK         0.0785 
    114 H114       28.6424  -48.7709  -50.6755 H         1 UNK         0.0798 
    115 H115       29.5098  -50.1021  -49.9352 H         1 UNK         0.0798 
    116 H116       29.1819  -50.1185  -51.6668 H         1 UNK         0.0798 
    117 H117       32.1617  -49.7802  -52.3159 H         1 UNK         0.3079 
    118 H118       34.1024  -51.7358  -49.9471 H         1 UNK         0.0794 
    119 H119       33.8614  -53.2788  -51.8870 H         1 UNK         0.0786 
    120 H120       32.4928  -52.3435  -52.4845 H         1 UNK         0.0786 
    121 H121       32.3792  -53.1878  -50.9493 H         1 UNK         0.0786 
    122 H122       34.2914  -50.5728  -52.6683 H         1 UNK         0.3032 
    123 H123       36.7229  -48.2255  -51.7414 H         1 UNK         0.1094 
    124 H124       37.4447  -50.8764  -53.1118 H         1 UNK         0.0794 
    125 H125       38.3322  -49.3587  -53.2646 H         1 UNK         0.0794 
    126 H126       38.2680  -50.1884  -51.7193 H         1 UNK         0.0794 
    127 H127       35.9211  -49.3288  -54.2868 H         1 UNK         0.3016 
@<TRIPOS>BOND
     1    1    2 1    
     2    1   67 1    
     3    1   68 1    
     4    1   69 1    
     5    2    3 2    
     6    2    4 am   BACKBONE|DICT|INTERRES
     7    4    5 1    
     8    4   70 1    
     9    5    6 1    
    10    5   65 1    
    11    5   71 1    
    12    6    7 1    
    13    6   72 1    
    14    6   73 1    
    15    7    8 1    
    16    8    9 1    
    17    8   74 1    
    18    8   75 1    
    19    9   10 ar   
    20    9   14 ar   
    21   10   11 ar   
    22   10   76 1    
    23   11   12 ar   
    24   11   48 1    
    25   12   13 ar   
    26   12   77 1    
    27   13   14 ar   
    28   13   15 1    
    29   14   78 1    
    30   15   16 1    
    31   15   79 1    
    32   15   80 1    
    33   16   17 1    
    34   17   18 1    
    35   17   81 1    
    36   17   82 1    
    37   18   19 1    
    38   18   22 1    
    39   18   83 1    
    40   19   20 am   BACKBONE|DICT|INTERRES
    41   19   21 2    
    42   20   84 1    
    43   20   85 1    
    44   22   23 am   BACKBONE|DICT|INTERRES
    45   22   86 1    
    46   23   24 2    
    47   23   25 1    
    48   25   26 1    
    49   25   27 1    
    50   25   87 1    
    51   26   88 1    
    52   26   89 1    
    53   26   90 1    
    54   27   28 am   BACKBONE|DICT|INTERRES
    55   27   91 1    
    56   28   29 2    
    57   28   30 1    
    58   30   31 1    
    59   30   32 1    
    60   30   92 1    
    61   31   93 1    
    62   31   94 1    
    63   31   95 1    
    64   32   33 am   BACKBONE|DICT|INTERRES
    65   32   96 1    
    66   33   34 2    
    67   33   35 1    
    68   35   36 1    
    69   35   37 1    
    70   35   97 1    
    71   36   98 1    
    72   36   99 1    
    73   36  100 1    
    74   37   38 am   BACKBONE|DICT|INTERRES
    75   37  101 1    
    76   38   39 2    
    77   38   40 1    
    78   40   41 1    
    79   40   42 1    
    80   40  102 1    
    81   41  103 1    
    82   41  104 1    
    83   41  105 1    
    84   42   43 am   BACKBONE|DICT|INTERRES
    85   42  106 1    
    86   43   44 2    
    87   43   45 1    
    88   45   46 1    
    89   45   49 1    
    90   45  107 1    
    91   46   47 1    
    92   46  108 1    
    93   46  109 1    
    94   47   48 1    
    95   48  110 1    
    96   48  111 1    
    97   49   50 am   BACKBONE|DICT|INTERRES
    98   49  112 1    
    99   50   51 2    
   100   50   52 1    
   101   52   53 1    
   102   52   54 1    
   103   52  113 1    
   104   53  114 1    
   105   53  115 1    
   106   53  116 1    
   107   54   55 am   BACKBONE|DICT|INTERRES
   108   54  117 1    
   109   55   56 2    
   110   55   57 1    
   111   57   58 1    
   112   57   59 1    
   113   57  118 1    
   114   58  119 1    
   115   58  120 1    
   116   58  121 1    
   117   59   60 am   BACKBONE|DICT|INTERRES
   118   59  122 1    
   119   60   61 2    
   120   60   62 1    
   121   62   63 1    
   122   62   64 1    
   123   62  123 1    
   124   63  124 1    
   125   63  125 1    
   126   63  126 1    
   127   64   65 am   BACKBONE|DICT|INTERRES
   128   64  127 1    
   129   65   66 2    
@<TRIPOS>SUBSTRUCTURE
     1 UNK         1 GROUP             0       ****    0 ROOT    
