@<TRIPOS>MOLECULE
3R134
127   129    1
SMALL
USER_CHARGES


@<TRIPOS>ATOM
      1 CA         31.9950  -43.7236  -47.3065 C.3       0 UNK        -0.1968 
      2 C          32.6812  -44.4184  -48.4737 C.2       0 UNK         0.4852 
      3 O          33.7463  -45.0108  -48.2915 O.2       0 UNK        -0.5359 
      4 N          32.0844  -44.3422  -49.6700 N.am      1 UNK        -0.4300 
      5 CA         32.5701  -44.9841  -50.8961 C.3       1 UNK         0.0863 
      6 C6         31.8584  -44.4383  -52.1593 C.3       11 UNK        -0.0953 
      7 S7         31.9537  -42.6220  -52.3135 S.3       11 UNK        -0.2369 
      8 C8         33.1822  -42.4034  -53.6438 C.3       11 UNK         0.0226 
      9 C9         32.7228  -42.9295  -55.0012 C.ar      11 UNK        -0.0699 
     10 C10        33.6048  -43.6807  -55.7851 C.ar      11 UNK        -0.0804 
     11 C11        33.2129  -44.1700  -57.0370 C.ar      11 UNK        -0.0871 
     12 C12        31.9242  -43.8901  -57.5024 C.ar      11 UNK        -0.1008 
     13 C13        31.0390  -43.1191  -56.7438 C.ar      11 UNK        -0.0735 
     14 C14        31.4454  -42.6393  -55.4956 C.ar      11 UNK        -0.0945 
     15 C15        29.6597  -42.7778  -57.2914 C.3       11 UNK         0.0169 
     16 S16        28.3471  -43.7004  -56.4343 S.3       11 UNK        -0.2669 
     17 C17        27.1841  -44.0236  -57.8025 C.3       11 UNK        -0.0850 
     18 CA         25.7557  -44.3535  -57.2998 C.3       10 UNK         0.0855 
     19 C          24.7675  -44.4383  -58.4928 C.2       10 UNK         0.5543 
     20 N          24.5468  -45.6060  -59.0830 N.am      10 UNK        -0.7343 
     21 O          24.1893  -43.4279  -58.8849 O.2       10 UNK        -0.5027 
     22 N          25.7327  -45.5684  -56.4692 N.am      10 UNK        -0.4495 
     23 C          25.1286  -45.6663  -55.2772 C.2       10 UNK         0.4903 
     24 O          24.5466  -44.7308  -54.7247 O.2       10 UNK        -0.4860 
     25 CA         25.1973  -47.0387  -54.5753 C.3       9 UNK         0.0227 
     26 CB         24.1766  -47.1892  -53.4263 C.3       9 UNK        -0.1964 
     27 N          25.1146  -48.1635  -55.5132 N.am      9 UNK        -0.4231 
     28 C          24.0890  -48.4738  -56.3246 C.2       9 UNK         0.5014 
     29 O          23.0004  -47.8971  -56.3026 O.2       9 UNK        -0.5270 
     30 CA         24.3204  -49.6157  -57.3420 C.3       8 UNK         0.0284 
     31 CB         23.4702  -49.4464  -58.6196 C.3       8 UNK        -0.1977 
     32 N          25.7326  -49.8307  -57.6927 N.am      8 UNK        -0.4342 
     33 C          26.5789  -48.9259  -58.2041 C.2       8 UNK         0.5039 
     34 O          26.2677  -47.7654  -58.4867 O.2       8 UNK        -0.5547 
     35 CA         28.0427  -49.3693  -58.3523 C.3       7 UNK         0.0281 
     36 CB         28.4276  -49.4897  -59.8348 C.3       7 UNK        -0.1963 
     37 N          28.9485  -48.4288  -57.6917 N.am      7 UNK        -0.4444 
     38 C          28.8919  -48.0639  -56.4046 C.2       7 UNK         0.5104 
     39 O          28.0964  -48.5357  -55.5878 O.2       7 UNK        -0.5100 
     40 CA         29.9005  -46.9899  -55.9732 C.3       6 UNK         0.0396 
     41 CB         29.6203  -46.4461  -54.5616 C.3       6 UNK        -0.1801 
     42 N          31.2692  -47.4902  -56.0205 N.am      6 UNK        -0.4747 
     43 C          32.0305  -47.6106  -57.1158 C.2       6 UNK         0.5012 
     44 O          31.6383  -47.3586  -58.2565 O.2       6 UNK        -0.5003 
     45 CA         33.4608  -48.1264  -56.8815 C.3       5 UNK         0.0782 
     46 C46        34.3082  -47.1149  -56.0595 C.3       11 UNK        -0.0868 
     47 S47        35.3647  -46.0344  -57.0782 S.3       11 UNK        -0.2515 
     48 C48        34.1691  -44.9520  -57.9382 C.3       11 UNK         0.0199 
     49 N          33.3758  -49.4198  -56.2072 N.am      5 UNK        -0.4607 
     50 C          33.3350  -50.6095  -56.8202 C.2       4 UNK         0.5031 
     51 O          33.4746  -50.7608  -58.0338 O.2       4 UNK        -0.5119 
     52 CA         33.0965  -51.8453  -55.9307 C.3       4 UNK         0.0263 
     53 CB         34.4347  -52.5018  -55.5545 C.3       4 UNK        -0.1967 
     54 N          32.3527  -51.5318  -54.7074 N.am      4 UNK        -0.4237 
     55 C          31.0618  -51.1700  -54.6749 C.2       3 UNK         0.4908 
     56 O          30.3238  -51.1962  -55.6594 O.2       3 UNK        -0.5102 
     57 CA         30.5020  -50.6737  -53.3274 C.3       3 UNK         0.0241 
     58 CB         29.6782  -51.7800  -52.6487 C.3       3 UNK        -0.1971 
     59 N          31.5150  -50.1762  -52.3837 N.am      3 UNK        -0.4139 
     60 C          32.3045  -49.1141  -52.5946 C.2       2 UNK         0.5016 
     61 O          32.3271  -48.4764  -53.6488 O.2       2 UNK        -0.5319 
     62 CA         33.2785  -48.7258  -51.4732 C.3       2 UNK         0.0286 
     63 CB         34.6798  -49.2822  -51.7737 C.3       2 UNK        -0.1963 
     64 N          33.3571  -47.2685  -51.3471 N.am      2 UNK        -0.4790 
     65 C          32.3890  -46.5137  -50.8117 C.2       1 UNK         0.5024 
     66 O          31.3701  -46.9801  -50.2942 O.2       1 UNK        -0.4888 
     67 H67        31.0734  -43.2280  -47.6114 H         1 UNK         0.0892 
     68 H68        31.7494  -44.4482  -46.5307 H         1 UNK         0.0892 
     69 H69        32.6565  -42.9727  -46.8753 H         1 UNK         0.0892 
     70 H70        31.2073  -43.8501  -49.7594 H         1 UNK         0.3107 
     71 H71        33.6368  -44.7664  -50.9844 H         1 UNK         0.0773 
     72 H72        32.2727  -44.9001  -53.0576 H         1 UNK         0.0680 
     73 H73        30.7999  -44.7053  -52.1434 H         1 UNK         0.0680 
     74 H74        34.1119  -42.8843  -53.3353 H         1 UNK         0.0650 
     75 H75        33.4022  -41.3398  -53.7419 H         1 UNK         0.0650 
     76 H76        34.6036  -43.8777  -55.4212 H         1 UNK         0.1397 
     77 H77        31.6141  -44.2591  -58.4709 H         1 UNK         0.1363 
     78 H78        30.7627  -42.0406  -54.9083 H         1 UNK         0.1355 
     79 H79        29.6215  -42.9890  -58.3612 H         1 UNK         0.0707 
     80 H80        29.4738  -41.7082  -57.1840 H         1 UNK         0.0707 
     81 H81        27.1601  -43.1430  -58.4479 H         1 UNK         0.1034 
     82 H82        27.5766  -44.8419  -58.4100 H         1 UNK         0.1034 
     83 H83        25.4311  -43.5004  -56.7008 H         1 UNK         0.0482 
     84 H84        25.0844  -46.4297  -58.8187 H         1 UNK         0.3460 
     85 H85        23.8998  -45.6546  -59.8529 H         1 UNK         0.3460 
     86 H86        26.1173  -46.4012  -56.8995 H         1 UNK         0.2989 
     87 H87        26.1921  -47.0947  -54.1315 H         1 UNK         0.0559 
     88 H88        24.3443  -46.4368  -52.6548 H         1 UNK         0.0848 
     89 H89        23.1504  -47.0703  -53.7751 H         1 UNK         0.0848 
     90 H90        24.2581  -48.1650  -52.9477 H         1 UNK         0.0848 
     91 H91        25.9852  -48.6724  -55.6307 H         1 UNK         0.3144 
     92 H92        23.9883  -50.5280  -56.8442 H         1 UNK         0.0727 
     93 H93        23.6304  -50.2701  -59.3152 H         1 UNK         0.0790 
     94 H94        23.7042  -48.5177  -59.1406 H         1 UNK         0.0790 
     95 H95        22.4053  -49.4271  -58.3845 H         1 UNK         0.0790 
     96 H96        26.0978  -50.7465  -57.4666 H         1 UNK         0.3215 
     97 H97        28.1788  -50.3421  -57.8749 H         1 UNK         0.0863 
     98 H98        27.7828  -50.2038  -60.3487 H         1 UNK         0.0808 
     99 H99        28.3344  -48.5343  -60.3532 H         1 UNK         0.0808 
    100 H100       29.4544  -49.8371  -59.9520 H         1 UNK         0.0808 
    101 H101       29.6731  -48.0046  -58.2605 H         1 UNK         0.3118 
    102 H102       29.8128  -46.1609  -56.6766 H         1 UNK         0.0546 
    103 H103       28.5918  -46.0946  -54.4733 H         1 UNK         0.0828 
    104 H104       30.2673  -45.5978  -54.3426 H         1 UNK         0.0828 
    105 H105       29.7770  -47.2034  -53.7927 H         1 UNK         0.0828 
    106 H106       31.6635  -47.7831  -55.1265 H         1 UNK         0.3005 
    107 H107       33.9278  -48.2690  -57.8590 H         1 UNK         0.1257 
    108 H108       34.9959  -47.6567  -55.4078 H         1 UNK         0.0775 
    109 H109       33.7073  -46.5094  -55.3782 H         1 UNK         0.0775 
    110 H110       34.7327  -44.2333  -58.5345 H         1 UNK         0.0840 
    111 H111       33.6103  -45.5567  -58.6532 H         1 UNK         0.0840 
    112 H112       33.1872  -49.3758  -55.2121 H         1 UNK         0.2987 
    113 H113       32.5122  -52.5623  -56.5116 H         1 UNK         0.0785 
    114 H114       35.0008  -52.7711  -56.4475 H         1 UNK         0.0798 
    115 H115       34.2815  -53.4171  -54.9826 H         1 UNK         0.0798 
    116 H116       35.0610  -51.8341  -54.9614 H         1 UNK         0.0798 
    117 H117       32.8770  -51.5118  -53.8454 H         1 UNK         0.3079 
    118 H118       29.8315  -49.8415  -53.5543 H         1 UNK         0.0794 
    119 H119       28.8957  -52.1476  -53.3143 H         1 UNK         0.0786 
    120 H120       29.1859  -51.4130  -51.7479 H         1 UNK         0.0786 
    121 H121       30.2981  -52.6335  -52.3714 H         1 UNK         0.0786 
    122 H122       31.5727  -50.6563  -51.4966 H         1 UNK         0.3032 
    123 H123       32.9265  -49.1431  -50.5267 H         1 UNK         0.1094 
    124 H124       35.3868  -49.0218  -50.9858 H         1 UNK         0.0794 
    125 H125       34.6631  -50.3707  -51.8435 H         1 UNK         0.0794 
    126 H126       35.0738  -48.9010  -52.7171 H         1 UNK         0.0794 
    127 H127       34.1443  -46.8185  -51.7912 H         1 UNK         0.3016 
@<TRIPOS>BOND
     1    1    2 1    
     2    1   67 1    
     3    1   68 1    
     4    1   69 1    
     5    2    3 2    
     6    2    4 am   BACKBONE|DICT|INTERRES
     7    4    5 1    
     8    4   70 1    
     9    5    6 1    
    10    5   65 1    
    11    5   71 1    
    12    6    7 1    
    13    6   72 1    
    14    6   73 1    
    15    7    8 1    
    16    8    9 1    
    17    8   74 1    
    18    8   75 1    
    19    9   10 ar   
    20    9   14 ar   
    21   10   11 ar   
    22   10   76 1    
    23   11   12 ar   
    24   11   48 1    
    25   12   13 ar   
    26   12   77 1    
    27   13   14 ar   
    28   13   15 1    
    29   14   78 1    
    30   15   16 1    
    31   15   79 1    
    32   15   80 1    
    33   16   17 1    
    34   17   18 1    
    35   17   81 1    
    36   17   82 1    
    37   18   19 1    
    38   18   22 1    
    39   18   83 1    
    40   19   20 am   BACKBONE|DICT|INTERRES
    41   19   21 2    
    42   20   84 1    
    43   20   85 1    
    44   22   23 am   BACKBONE|DICT|INTERRES
    45   22   86 1    
    46   23   24 2    
    47   23   25 1    
    48   25   26 1    
    49   25   27 1    
    50   25   87 1    
    51   26   88 1    
    52   26   89 1    
    53   26   90 1    
    54   27   28 am   BACKBONE|DICT|INTERRES
    55   27   91 1    
    56   28   29 2    
    57   28   30 1    
    58   30   31 1    
    59   30   32 1    
    60   30   92 1    
    61   31   93 1    
    62   31   94 1    
    63   31   95 1    
    64   32   33 am   BACKBONE|DICT|INTERRES
    65   32   96 1    
    66   33   34 2    
    67   33   35 1    
    68   35   36 1    
    69   35   37 1    
    70   35   97 1    
    71   36   98 1    
    72   36   99 1    
    73   36  100 1    
    74   37   38 am   BACKBONE|DICT|INTERRES
    75   37  101 1    
    76   38   39 2    
    77   38   40 1    
    78   40   41 1    
    79   40   42 1    
    80   40  102 1    
    81   41  103 1    
    82   41  104 1    
    83   41  105 1    
    84   42   43 am   BACKBONE|DICT|INTERRES
    85   42  106 1    
    86   43   44 2    
    87   43   45 1    
    88   45   46 1    
    89   45   49 1    
    90   45  107 1    
    91   46   47 1    
    92   46  108 1    
    93   46  109 1    
    94   47   48 1    
    95   48  110 1    
    96   48  111 1    
    97   49   50 am   BACKBONE|DICT|INTERRES
    98   49  112 1    
    99   50   51 2    
   100   50   52 1    
   101   52   53 1    
   102   52   54 1    
   103   52  113 1    
   104   53  114 1    
   105   53  115 1    
   106   53  116 1    
   107   54   55 am   BACKBONE|DICT|INTERRES
   108   54  117 1    
   109   55   56 2    
   110   55   57 1    
   111   57   58 1    
   112   57   59 1    
   113   57  118 1    
   114   58  119 1    
   115   58  120 1    
   116   58  121 1    
   117   59   60 am   BACKBONE|DICT|INTERRES
   118   59  122 1    
   119   60   61 2    
   120   60   62 1    
   121   62   63 1    
   122   62   64 1    
   123   62  123 1    
   124   63  124 1    
   125   63  125 1    
   126   63  126 1    
   127   64   65 am   BACKBONE|DICT|INTERRES
   128   64  127 1    
   129   65   66 2    
@<TRIPOS>SUBSTRUCTURE
     1 UNK         1 GROUP             0       ****    0 ROOT    
