@<TRIPOS>MOLECULE
3R134
127   129    1
SMALL
USER_CHARGES


@<TRIPOS>ATOM
      1 CA         34.5654  -48.3705  -57.6465 C.3       0 UNK        -0.1968 
      2 C          34.3171  -47.8251  -56.2487 C.2       0 UNK         0.4852 
      3 O          34.1818  -48.6066  -55.3084 O.2       0 UNK        -0.5359 
      4 N          34.2601  -46.4940  -56.1058 N.am      1 UNK        -0.4300 
      5 CA         34.0056  -45.7639  -54.8564 C.3       1 UNK         0.0863 
      6 C6         34.0891  -44.2346  -55.0700 C.3       11 UNK        -0.0953 
      7 S7         32.8575  -43.6369  -56.2753 S.3       11 UNK        -0.2369 
      8 C8         31.7092  -42.7181  -55.2053 C.3       11 UNK         0.0226 
      9 C9         30.7752  -43.6390  -54.4334 C.ar      11 UNK        -0.0699 
     10 C10        31.0966  -44.0620  -53.1391 C.ar      11 UNK        -0.0804 
     11 C11        30.2090  -44.8652  -52.4156 C.ar      11 UNK        -0.0871 
     12 C12        28.9784  -45.2093  -52.9823 C.ar      11 UNK        -0.1008 
     13 C13        28.6585  -44.8184  -54.2833 C.ar      11 UNK        -0.0735 
     14 C14        29.5681  -44.0448  -55.0095 C.ar      11 UNK        -0.0945 
     15 C15        27.3533  -45.2848  -54.9086 C.3       11 UNK         0.0169 
     16 S16        25.9880  -44.0961  -54.7189 S.3       11 UNK        -0.2669 
     17 C17        26.3282  -42.8296  -55.9937 C.3       11 UNK        -0.0850 
     18 CA         25.6854  -43.1660  -57.3767 C.3       10 UNK         0.0855 
     19 C          25.5305  -41.9376  -58.3297 C.2       10 UNK         0.5543 
     20 N          25.1898  -40.7645  -57.8115 N.am      10 UNK        -0.7343 
     21 O          25.6537  -42.0407  -59.5492 O.2       10 UNK        -0.5027 
     22 N          26.3223  -44.3306  -58.0174 N.am      10 UNK        -0.4495 
     23 C          27.5716  -44.3877  -58.5094 C.2       10 UNK         0.4903 
     24 O          28.3560  -43.4385  -58.4851 O.2       10 UNK        -0.4860 
     25 CA         28.0635  -45.7275  -59.0969 C.3       9 UNK         0.0227 
     26 CB         29.3226  -46.2283  -58.3631 C.3       9 UNK        -0.1964 
     27 N          27.0444  -46.7800  -59.0662 N.am      9 UNK        -0.4231 
     28 C          26.1244  -46.9764  -60.0232 C.2       9 UNK         0.5014 
     29 O          26.0900  -46.3409  -61.0776 O.2       9 UNK        -0.5270 
     30 CA         25.0413  -48.0442  -59.7645 C.3       8 UNK         0.0284 
     31 CB         25.4212  -49.3688  -60.4462 C.3       8 UNK        -0.1977 
     32 N          24.7746  -48.2950  -58.3450 N.am      8 UNK        -0.4342 
     33 C          24.3454  -47.3820  -57.4627 C.2       8 UNK         0.5039 
     34 O          24.0423  -46.2297  -57.7718 O.2       8 UNK        -0.5547 
     35 CA         24.2932  -47.7996  -55.9811 C.3       7 UNK         0.0281 
     36 CB         22.8510  -48.1418  -55.5743 C.3       7 UNK        -0.1963 
     37 N          25.1790  -48.9122  -55.6049 N.am      7 UNK        -0.4444 
     38 C          26.5076  -48.9512  -55.7767 C.2       7 UNK         0.5104 
     39 O          27.1482  -48.1005  -56.3980 O.2       7 UNK        -0.5100 
     40 CA         27.2403  -50.1703  -55.2007 C.3       6 UNK         0.0396 
     41 CB         27.6041  -51.1557  -56.3223 C.3       6 UNK        -0.1801 
     42 N          28.4627  -49.7491  -54.5197 N.am      6 UNK        -0.4747 
     43 C          28.5226  -49.1793  -53.3099 C.2       6 UNK         0.5012 
     44 O          27.5330  -49.0447  -52.5875 O.2       6 UNK        -0.5003 
     45 CA         29.9147  -48.6909  -52.8298 C.3       5 UNK         0.0782 
     46 C46        29.8751  -48.0824  -51.4004 C.3       11 UNK        -0.0868 
     47 S47        31.3224  -47.0222  -51.0673 S.3       11 UNK        -0.2515 
     48 C48        30.5749  -45.3576  -51.0223 C.3       11 UNK         0.0199 
     49 N          30.9395  -49.7429  -52.9099 N.am      5 UNK        -0.4607 
     50 C          31.4858  -50.2465  -54.0224 C.2       4 UNK         0.5031 
     51 O          31.2018  -49.8619  -55.1581 O.2       4 UNK        -0.5119 
     52 CA         32.5266  -51.3527  -53.8200 C.3       4 UNK         0.0263 
     53 CB         32.6351  -52.2938  -55.0352 C.3       4 UNK        -0.1967 
     54 N          33.8138  -50.7161  -53.5757 N.am      4 UNK        -0.4237 
     55 C          34.7874  -51.1935  -52.7928 C.2       3 UNK         0.4908 
     56 O          34.7088  -52.2489  -52.1626 O.2       3 UNK        -0.5102 
     57 CA         36.0660  -50.3461  -52.6915 C.3       3 UNK         0.0241 
     58 CB         36.9350  -50.5100  -53.9498 C.3       3 UNK        -0.1971 
     59 N          35.7692  -48.9282  -52.4803 N.am      3 UNK        -0.4139 
     60 C          35.3824  -48.3949  -51.3141 C.2       2 UNK         0.5016 
     61 O          35.2899  -49.0433  -50.2711 O.2       2 UNK        -0.5319 
     62 CA         35.0216  -46.8964  -51.2858 C.3       2 UNK         0.0286 
     63 CB         36.2246  -46.0358  -50.8503 C.3       2 UNK        -0.1963 
     64 N          34.3985  -46.3929  -52.5208 N.am      2 UNK        -0.4790 
     65 C          34.9592  -46.1922  -53.7215 C.2       1 UNK         0.5024 
     66 O          36.1576  -46.3566  -53.9597 O.2       1 UNK        -0.4888 
     67 H67        35.4868  -48.9518  -57.6624 H         1 UNK         0.0892 
     68 H68        33.7445  -49.0237  -57.9414 H         1 UNK         0.0892 
     69 H69        34.6505  -47.5752  -58.3867 H         1 UNK         0.0892 
     70 H70        34.3885  -45.9080  -56.9177 H         1 UNK         0.3107 
     71 H71        32.9865  -46.0157  -54.5541 H         1 UNK         0.0773 
     72 H72        33.9596  -43.7020  -54.1266 H         1 UNK         0.0680 
     73 H73        35.0798  -43.9550  -55.4342 H         1 UNK         0.0680 
     74 H74        31.1198  -42.0463  -55.8313 H         1 UNK         0.0650 
     75 H75        32.2679  -42.0756  -54.5231 H         1 UNK         0.0650 
     76 H76        32.0346  -43.7624  -52.6929 H         1 UNK         0.1397 
     77 H77        28.2697  -45.8025  -52.4231 H         1 UNK         0.1363 
     78 H78        29.3391  -43.7495  -56.0232 H         1 UNK         0.1355 
     79 H79        27.5038  -45.5222  -55.9567 H         1 UNK         0.0707 
     80 H80        27.0453  -46.2205  -54.4403 H         1 UNK         0.0707 
     81 H81        27.3970  -42.6482  -56.0877 H         1 UNK         0.1034 
     82 H82        25.9198  -41.9040  -55.5885 H         1 UNK         0.1034 
     83 H83        24.6582  -43.4816  -57.1910 H         1 UNK         0.0482 
     84 H84        25.0334  -40.6490  -56.8231 H         1 UNK         0.3460 
     85 H85        25.0678  -39.9779  -58.4303 H         1 UNK         0.3460 
     86 H86        25.7201  -45.1424  -58.1012 H         1 UNK         0.2989 
     87 H87        28.3455  -45.5320  -60.1335 H         1 UNK         0.0559 
     88 H88        29.1249  -46.4602  -57.3168 H         1 UNK         0.0848 
     89 H89        30.1162  -45.4800  -58.3836 H         1 UNK         0.0848 
     90 H90        29.7196  -47.1291  -58.8311 H         1 UNK         0.0848 
     91 H91        26.9992  -47.3346  -58.2145 H         1 UNK         0.3144 
     92 H92        24.1141  -47.6803  -60.2123 H         1 UNK         0.0727 
     93 H93        24.6246  -50.1073  -60.3534 H         1 UNK         0.0790 
     94 H94        26.3297  -49.7964  -60.0198 H         1 UNK         0.0790 
     95 H95        25.6001  -49.2215  -61.5123 H         1 UNK         0.0790 
     96 H96        24.9982  -49.2154  -57.9964 H         1 UNK         0.3215 
     97 H97        24.6114  -46.9302  -55.4019 H         1 UNK         0.0863 
     98 H98        22.4856  -49.0303  -56.0908 H         1 UNK         0.0808 
     99 H99        22.1721  -47.3224  -55.8161 H         1 UNK         0.0808 
    100 H100       22.7706  -48.3174  -54.5014 H         1 UNK         0.0808 
    101 H101       24.7446  -49.6720  -55.1002 H         1 UNK         0.3118 
    102 H102       26.5940  -50.6805  -54.4833 H         1 UNK         0.0546 
    103 H103       28.1185  -52.0323  -55.9281 H         1 UNK         0.0828 
    104 H104       28.2531  -50.6957  -57.0692 H         1 UNK         0.0828 
    105 H105       26.7110  -51.5097  -56.8388 H         1 UNK         0.0828 
    106 H106       29.3282  -49.8005  -55.0522 H         1 UNK         0.3005 
    107 H107       30.1959  -47.8964  -53.5259 H         1 UNK         0.1257 
    108 H108       29.8453  -48.8748  -50.6505 H         1 UNK         0.0775 
    109 H109       28.9734  -47.4972  -51.2244 H         1 UNK         0.0775 
    110 H110       29.6963  -45.3605  -50.3753 H         1 UNK         0.0840 
    111 H111       31.2840  -44.6697  -50.5592 H         1 UNK         0.0840 
    112 H112       31.2445  -50.1141  -52.0220 H         1 UNK         0.2987 
    113 H113       32.2291  -51.9427  -52.9503 H         1 UNK         0.0785 
    114 H114       33.3334  -53.1085  -54.8436 H         1 UNK         0.0798 
    115 H115       31.6685  -52.7411  -55.2700 H         1 UNK         0.0798 
    116 H116       32.9769  -51.7636  -55.9253 H         1 UNK         0.0798 
    117 H117       33.9709  -49.8503  -54.0979 H         1 UNK         0.3079 
    118 H118       36.6408  -50.7100  -51.8370 H         1 UNK         0.0794 
    119 H119       37.8761  -49.9684  -53.8534 H         1 UNK         0.0786 
    120 H120       36.4295  -50.1448  -54.8446 H         1 UNK         0.0786 
    121 H121       37.1807  -51.5592  -54.1193 H         1 UNK         0.0786 
    122 H122       35.8280  -48.3152  -53.2855 H         1 UNK         0.3032 
    123 H123       34.2599  -46.7884  -50.5119 H         1 UNK         0.1094 
    124 H124       37.0705  -46.1343  -51.5309 H         1 UNK         0.0794 
    125 H125       35.9583  -44.9804  -50.7934 H         1 UNK         0.0794 
    126 H126       36.5744  -46.3352  -49.8615 H         1 UNK         0.0794 
    127 H127       33.3962  -46.2714  -52.4495 H         1 UNK         0.3016 
@<TRIPOS>BOND
     1    1    2 1    
     2    1   67 1    
     3    1   68 1    
     4    1   69 1    
     5    2    3 2    
     6    2    4 am   BACKBONE|DICT|INTERRES
     7    4    5 1    
     8    4   70 1    
     9    5    6 1    
    10    5   65 1    
    11    5   71 1    
    12    6    7 1    
    13    6   72 1    
    14    6   73 1    
    15    7    8 1    
    16    8    9 1    
    17    8   74 1    
    18    8   75 1    
    19    9   10 ar   
    20    9   14 ar   
    21   10   11 ar   
    22   10   76 1    
    23   11   12 ar   
    24   11   48 1    
    25   12   13 ar   
    26   12   77 1    
    27   13   14 ar   
    28   13   15 1    
    29   14   78 1    
    30   15   16 1    
    31   15   79 1    
    32   15   80 1    
    33   16   17 1    
    34   17   18 1    
    35   17   81 1    
    36   17   82 1    
    37   18   19 1    
    38   18   22 1    
    39   18   83 1    
    40   19   20 am   BACKBONE|DICT|INTERRES
    41   19   21 2    
    42   20   84 1    
    43   20   85 1    
    44   22   23 am   BACKBONE|DICT|INTERRES
    45   22   86 1    
    46   23   24 2    
    47   23   25 1    
    48   25   26 1    
    49   25   27 1    
    50   25   87 1    
    51   26   88 1    
    52   26   89 1    
    53   26   90 1    
    54   27   28 am   BACKBONE|DICT|INTERRES
    55   27   91 1    
    56   28   29 2    
    57   28   30 1    
    58   30   31 1    
    59   30   32 1    
    60   30   92 1    
    61   31   93 1    
    62   31   94 1    
    63   31   95 1    
    64   32   33 am   BACKBONE|DICT|INTERRES
    65   32   96 1    
    66   33   34 2    
    67   33   35 1    
    68   35   36 1    
    69   35   37 1    
    70   35   97 1    
    71   36   98 1    
    72   36   99 1    
    73   36  100 1    
    74   37   38 am   BACKBONE|DICT|INTERRES
    75   37  101 1    
    76   38   39 2    
    77   38   40 1    
    78   40   41 1    
    79   40   42 1    
    80   40  102 1    
    81   41  103 1    
    82   41  104 1    
    83   41  105 1    
    84   42   43 am   BACKBONE|DICT|INTERRES
    85   42  106 1    
    86   43   44 2    
    87   43   45 1    
    88   45   46 1    
    89   45   49 1    
    90   45  107 1    
    91   46   47 1    
    92   46  108 1    
    93   46  109 1    
    94   47   48 1    
    95   48  110 1    
    96   48  111 1    
    97   49   50 am   BACKBONE|DICT|INTERRES
    98   49  112 1    
    99   50   51 2    
   100   50   52 1    
   101   52   53 1    
   102   52   54 1    
   103   52  113 1    
   104   53  114 1    
   105   53  115 1    
   106   53  116 1    
   107   54   55 am   BACKBONE|DICT|INTERRES
   108   54  117 1    
   109   55   56 2    
   110   55   57 1    
   111   57   58 1    
   112   57   59 1    
   113   57  118 1    
   114   58  119 1    
   115   58  120 1    
   116   58  121 1    
   117   59   60 am   BACKBONE|DICT|INTERRES
   118   59  122 1    
   119   60   61 2    
   120   60   62 1    
   121   62   63 1    
   122   62   64 1    
   123   62  123 1    
   124   63  124 1    
   125   63  125 1    
   126   63  126 1    
   127   64   65 am   BACKBONE|DICT|INTERRES
   128   64  127 1    
   129   65   66 2    
@<TRIPOS>SUBSTRUCTURE
     1 UNK         1 GROUP             0       ****    0 ROOT    
