@<TRIPOS>MOLECULE
3R134
127   129    1
SMALL
USER_CHARGES


@<TRIPOS>ATOM
      1 CA         33.5868  -49.7927  -60.9290 C.3       0 UNK        -0.1968 
      2 C          33.1146  -49.6498  -59.4897 C.2       0 UNK         0.4852 
      3 O          32.3485  -50.4876  -59.0117 O.2       0 UNK        -0.5359 
      4 N          33.5629  -48.5949  -58.7956 N.am      1 UNK        -0.4300 
      5 CA         33.2445  -48.3195  -57.3941 C.3       1 UNK         0.0863 
      6 C6         33.4436  -46.8213  -57.0527 C.3       11 UNK        -0.0953 
      7 S7         32.4902  -46.3271  -55.5815 S.3       11 UNK        -0.2369 
      8 C8         32.8259  -44.5404  -55.5707 C.3       11 UNK         0.0226 
      9 C9         31.8018  -43.8052  -54.7235 C.ar      11 UNK        -0.0699 
     10 C10        32.0618  -43.5103  -53.3819 C.ar      11 UNK        -0.0804 
     11 C11        31.1005  -42.8572  -52.6030 C.ar      11 UNK        -0.0871 
     12 C12        29.8758  -42.4980  -53.1766 C.ar      11 UNK        -0.1008 
     13 C13        29.6068  -42.7919  -54.5160 C.ar      11 UNK        -0.0735 
     14 C14        30.5791  -43.4320  -55.2868 C.ar      11 UNK        -0.0945 
     15 C15        28.2616  -42.4380  -55.1284 C.3       11 UNK         0.0169 
     16 S16        27.1707  -43.8926  -55.1613 S.3       11 UNK        -0.2669 
     17 C17        25.6120  -43.1572  -55.7743 C.3       11 UNK        -0.0850 
     18 CA         25.2970  -43.4852  -57.2592 C.3       10 UNK         0.0855 
     19 C          26.1485  -42.6357  -58.2512 C.2       10 UNK         0.5543 
     20 N          26.8653  -43.2207  -59.2042 N.am      10 UNK        -0.7343 
     21 O          26.1480  -41.4107  -58.1597 O.2       10 UNK        -0.5027 
     22 N          25.3295  -44.9341  -57.4941 N.am      10 UNK        -0.4495 
     23 C          24.6977  -45.5899  -58.4740 C.2       10 UNK         0.4903 
     24 O          23.8938  -45.0664  -59.2467 O.2       10 UNK        -0.4860 
     25 CA         25.0626  -47.0817  -58.6127 C.3       9 UNK         0.0227 
     26 CB         24.6110  -47.6958  -59.9549 C.3       9 UNK        -0.1964 
     27 N          26.4929  -47.3242  -58.3689 N.am      9 UNK        -0.4231 
     28 C          27.5272  -46.8150  -59.0612 C.2       9 UNK         0.5014 
     29 O          27.3869  -46.1096  -60.0612 O.2       9 UNK        -0.5270 
     30 CA         28.9573  -47.0521  -58.5314 C.3       8 UNK         0.0284 
     31 CB         29.6399  -45.7028  -58.2527 C.3       8 UNK        -0.1977 
     32 N          29.0169  -47.8603  -57.3119 N.am      8 UNK        -0.4342 
     33 C          28.8563  -49.1884  -57.2561 C.2       8 UNK         0.5039 
     34 O          28.7066  -49.9024  -58.2472 O.2       8 UNK        -0.5547 
     35 CA         28.8012  -49.8207  -55.8532 C.3       7 UNK         0.0281 
     36 CB         30.1811  -50.3649  -55.4526 C.3       7 UNK        -0.1963 
     37 N          28.3154  -48.9206  -54.7986 N.am      7 UNK        -0.4444 
     38 C          27.0986  -48.3461  -54.7692 C.2       7 UNK         0.5104 
     39 O          26.2734  -48.4656  -55.6745 O.2       7 UNK        -0.5100 
     40 CA         26.7385  -47.4782  -53.5534 C.3       6 UNK         0.0396 
     41 CB         25.9114  -48.3029  -52.5479 C.3       6 UNK        -0.1801 
     42 N          27.9433  -46.9397  -52.9281 N.am      6 UNK        -0.4747 
     43 C          28.0375  -46.0471  -51.9405 C.2       6 UNK         0.5012 
     44 O          27.0695  -45.5137  -51.3957 O.2       6 UNK        -0.5003 
     45 CA         29.4781  -45.7427  -51.4711 C.3       5 UNK         0.0782 
     46 C46        29.5350  -44.5985  -50.4251 C.3       11 UNK        -0.0868 
     47 S47        31.2499  -44.0622  -50.1032 S.3       11 UNK        -0.2515 
     48 C48        31.3728  -42.5634  -51.1341 C.3       11 UNK         0.0199 
     49 N          30.1491  -46.9547  -50.9782 N.am      5 UNK        -0.4607 
     50 C          30.6143  -47.9650  -51.7233 C.2       4 UNK         0.5031 
     51 O          30.5002  -48.0280  -52.9510 O.2       4 UNK        -0.5119 
     52 CA         31.2420  -49.1411  -50.9632 C.3       4 UNK         0.0263 
     53 CB         30.2962  -50.3529  -50.9809 C.3       4 UNK        -0.1967 
     54 N          32.5285  -49.5271  -51.5390 N.am      4 UNK        -0.4237 
     55 C          33.6502  -48.8009  -51.4803 C.2       3 UNK         0.4908 
     56 O          33.7283  -47.7153  -50.9039 O.2       3 UNK        -0.5102 
     57 CA         34.9131  -49.3794  -52.1464 C.3       3 UNK         0.0241 
     58 CB         35.6405  -50.3474  -51.1927 C.3       3 UNK        -0.1971 
     59 N          34.7154  -49.9874  -53.4706 N.am      3 UNK        -0.4139 
     60 C          34.0183  -51.0765  -53.8223 C.2       2 UNK         0.5016 
     61 O          33.3402  -51.7412  -53.0360 O.2       2 UNK        -0.5319 
     62 CA         34.0770  -51.4674  -55.3141 C.3       2 UNK         0.0286 
     63 CB         33.3655  -52.8029  -55.6017 C.3       2 UNK        -0.1963 
     64 N          33.5066  -50.4371  -56.1863 N.am      2 UNK        -0.4790 
     65 C          34.0611  -49.2544  -56.4783 C.2       1 UNK         0.5024 
     66 O          35.1745  -48.9113  -56.0739 O.2       1 UNK        -0.4888 
     67 H67        34.2507  -48.9803  -61.2241 H         1 UNK         0.0892 
     68 H68        34.1234  -50.7325  -61.0555 H         1 UNK         0.0892 
     69 H69        32.7320  -49.7944  -61.6049 H         1 UNK         0.0892 
     70 H70        34.2156  -47.9576  -59.2297 H         1 UNK         0.3107 
     71 H71        32.1849  -48.5469  -57.2536 H         1 UNK         0.0773 
     72 H72        33.0909  -46.2076  -57.8831 H         1 UNK         0.0680 
     73 H73        34.4955  -46.5627  -56.9169 H         1 UNK         0.0680 
     74 H74        32.7997  -44.1525  -56.5902 H         1 UNK         0.0650 
     75 H75        33.8356  -44.3643  -55.1966 H         1 UNK         0.0650 
     76 H76        33.0026  -43.8061  -52.9376 H         1 UNK         0.1397 
     77 H77        29.1230  -42.0052  -52.5765 H         1 UNK         0.1363 
     78 H78        30.3765  -43.6577  -56.3234 H         1 UNK         0.1355 
     79 H79        28.4009  -42.0621  -56.1432 H         1 UNK         0.0707 
     80 H80        27.7864  -41.6366  -54.5604 H         1 UNK         0.0707 
     81 H81        24.8067  -43.5460  -55.1492 H         1 UNK         0.1034 
     82 H82        25.6071  -42.0795  -55.6004 H         1 UNK         0.1034 
     83 H83        24.2691  -43.1622  -57.4342 H         1 UNK         0.0482 
     84 H84        27.3991  -42.6436  -59.8338 H         1 UNK         0.3460 
     85 H85        26.8597  -44.2249  -59.3313 H         1 UNK         0.3460 
     86 H86        25.9781  -45.4449  -56.9135 H         1 UNK         0.2989 
     87 H87        24.5267  -47.6011  -57.8169 H         1 UNK         0.0559 
     88 H88        23.5281  -47.6316  -60.0681 H         1 UNK         0.0848 
     89 H89        24.8807  -48.7498  -60.0194 H         1 UNK         0.0848 
     90 H90        25.0558  -47.1826  -60.8081 H         1 UNK         0.0848 
     91 H91        26.6916  -47.8691  -57.5349 H         1 UNK         0.3144 
     92 H92        29.5164  -47.5664  -59.3160 H         1 UNK         0.0727 
     93 H93        29.0855  -45.1249  -57.5127 H         1 UNK         0.0790 
     94 H94        29.7013  -45.0967  -59.1576 H         1 UNK         0.0790 
     95 H95        30.6574  -45.8362  -57.8896 H         1 UNK         0.0790 
     96 H96        29.1384  -47.3616  -56.4422 H         1 UNK         0.3215 
     97 H97        28.1065  -50.6616  -55.9100 H         1 UNK         0.0863 
     98 H98        30.1284  -50.9469  -54.5324 H         1 UNK         0.0808 
     99 H99        30.8999  -49.5598  -55.2954 H         1 UNK         0.0808 
    100 H100       30.5785  -51.0226  -56.2268 H         1 UNK         0.0808 
    101 H101       28.9551  -48.7814  -54.0249 H         1 UNK         0.3118 
    102 H102       26.1362  -46.6404  -53.9098 H         1 UNK         0.0546 
    103 H103       26.4999  -49.1095  -52.1093 H         1 UNK         0.0828 
    104 H104       25.0456  -48.7560  -53.0329 H         1 UNK         0.0828 
    105 H105       25.5309  -47.6854  -51.7347 H         1 UNK         0.0828 
    106 H106       28.8301  -47.2977  -53.2711 H         1 UNK         0.3005 
    107 H107       30.0143  -45.4072  -52.3619 H         1 UNK         0.1257 
    108 H108       29.0897  -44.9198  -49.4818 H         1 UNK         0.0775 
    109 H109       28.9509  -43.7362  -50.7508 H         1 UNK         0.0775 
    110 H110       30.6822  -41.8083  -50.7549 H         1 UNK         0.0840 
    111 H111       32.3729  -42.1407  -51.0273 H         1 UNK         0.0840 
    112 H112       30.2695  -47.0009  -49.9770 H         1 UNK         0.2987 
    113 H113       31.4111  -48.8489  -49.9246 H         1 UNK         0.0785 
    114 H114       29.3270  -50.1001  -50.5487 H         1 UNK         0.0798 
    115 H115       30.7034  -51.1817  -50.4015 H         1 UNK         0.0798 
    116 H116       30.1180  -50.7108  -51.9957 H         1 UNK         0.0798 
    117 H117       32.5732  -50.4092  -52.0454 H         1 UNK         0.3079 
    118 H118       35.5802  -48.5331  -52.3188 H         1 UNK         0.0794 
    119 H119       36.5869  -50.6841  -51.6158 H         1 UNK         0.0786 
    120 H120       35.0397  -51.2300  -50.9704 H         1 UNK         0.0786 
    121 H121       35.8654  -49.8617  -50.2422 H         1 UNK         0.0786 
    122 H122       35.1540  -49.4853  -54.2388 H         1 UNK         0.3032 
    123 H123       35.1317  -51.5924  -55.5705 H         1 UNK         0.1094 
    124 H124       32.3014  -52.7540  -55.3676 H         1 UNK         0.0794 
    125 H125       33.4663  -53.0896  -56.6487 H         1 UNK         0.0794 
    126 H126       33.7931  -53.6093  -55.0042 H         1 UNK         0.0794 
    127 H127       32.6291  -50.6647  -56.6342 H         1 UNK         0.3016 
@<TRIPOS>BOND
     1    1    2 1    
     2    1   67 1    
     3    1   68 1    
     4    1   69 1    
     5    2    3 2    
     6    2    4 am   BACKBONE|DICT|INTERRES
     7    4    5 1    
     8    4   70 1    
     9    5    6 1    
    10    5   65 1    
    11    5   71 1    
    12    6    7 1    
    13    6   72 1    
    14    6   73 1    
    15    7    8 1    
    16    8    9 1    
    17    8   74 1    
    18    8   75 1    
    19    9   10 ar   
    20    9   14 ar   
    21   10   11 ar   
    22   10   76 1    
    23   11   12 ar   
    24   11   48 1    
    25   12   13 ar   
    26   12   77 1    
    27   13   14 ar   
    28   13   15 1    
    29   14   78 1    
    30   15   16 1    
    31   15   79 1    
    32   15   80 1    
    33   16   17 1    
    34   17   18 1    
    35   17   81 1    
    36   17   82 1    
    37   18   19 1    
    38   18   22 1    
    39   18   83 1    
    40   19   20 am   BACKBONE|DICT|INTERRES
    41   19   21 2    
    42   20   84 1    
    43   20   85 1    
    44   22   23 am   BACKBONE|DICT|INTERRES
    45   22   86 1    
    46   23   24 2    
    47   23   25 1    
    48   25   26 1    
    49   25   27 1    
    50   25   87 1    
    51   26   88 1    
    52   26   89 1    
    53   26   90 1    
    54   27   28 am   BACKBONE|DICT|INTERRES
    55   27   91 1    
    56   28   29 2    
    57   28   30 1    
    58   30   31 1    
    59   30   32 1    
    60   30   92 1    
    61   31   93 1    
    62   31   94 1    
    63   31   95 1    
    64   32   33 am   BACKBONE|DICT|INTERRES
    65   32   96 1    
    66   33   34 2    
    67   33   35 1    
    68   35   36 1    
    69   35   37 1    
    70   35   97 1    
    71   36   98 1    
    72   36   99 1    
    73   36  100 1    
    74   37   38 am   BACKBONE|DICT|INTERRES
    75   37  101 1    
    76   38   39 2    
    77   38   40 1    
    78   40   41 1    
    79   40   42 1    
    80   40  102 1    
    81   41  103 1    
    82   41  104 1    
    83   41  105 1    
    84   42   43 am   BACKBONE|DICT|INTERRES
    85   42  106 1    
    86   43   44 2    
    87   43   45 1    
    88   45   46 1    
    89   45   49 1    
    90   45  107 1    
    91   46   47 1    
    92   46  108 1    
    93   46  109 1    
    94   47   48 1    
    95   48  110 1    
    96   48  111 1    
    97   49   50 am   BACKBONE|DICT|INTERRES
    98   49  112 1    
    99   50   51 2    
   100   50   52 1    
   101   52   53 1    
   102   52   54 1    
   103   52  113 1    
   104   53  114 1    
   105   53  115 1    
   106   53  116 1    
   107   54   55 am   BACKBONE|DICT|INTERRES
   108   54  117 1    
   109   55   56 2    
   110   55   57 1    
   111   57   58 1    
   112   57   59 1    
   113   57  118 1    
   114   58  119 1    
   115   58  120 1    
   116   58  121 1    
   117   59   60 am   BACKBONE|DICT|INTERRES
   118   59  122 1    
   119   60   61 2    
   120   60   62 1    
   121   62   63 1    
   122   62   64 1    
   123   62  123 1    
   124   63  124 1    
   125   63  125 1    
   126   63  126 1    
   127   64   65 am   BACKBONE|DICT|INTERRES
   128   64  127 1    
   129   65   66 2    
@<TRIPOS>SUBSTRUCTURE
     1 UNK         1 GROUP             0       ****    0 ROOT    
