@<TRIPOS>MOLECULE
3R134
127   129    1
SMALL
USER_CHARGES


@<TRIPOS>ATOM
      1 CA         39.2355  -44.8449  -53.2701 C.3       0 UNK        -0.1968 
      2 C          38.1075  -45.5254  -54.0315 C.2       0 UNK         0.4852 
      3 O          38.3292  -46.5685  -54.6480 O.2       0 UNK        -0.5359 
      4 N          36.9024  -44.9406  -53.9956 N.am      1 UNK        -0.4300 
      5 CA         35.6887  -45.4623  -54.6366 C.3       1 UNK         0.0863 
      6 C6         34.5827  -44.3816  -54.7541 C.3       11 UNK        -0.0953 
      7 S7         34.2075  -43.5091  -53.1903 S.3       11 UNK        -0.2369 
      8 C8         32.7533  -44.4288  -52.5854 C.3       11 UNK         0.0226 
      9 C9         31.4034  -43.8550  -53.0102 C.ar      11 UNK        -0.0699 
     10 C10        30.3307  -43.9397  -52.1187 C.ar      11 UNK        -0.0804 
     11 C11        29.0578  -43.4915  -52.4816 C.ar      11 UNK        -0.0871 
     12 C12        28.8586  -42.9438  -53.7511 C.ar      11 UNK        -0.1008 
     13 C13        29.9212  -42.8447  -54.6541 C.ar      11 UNK        -0.0735 
     14 C14        31.1903  -43.2953  -54.2763 C.ar      11 UNK        -0.0945 
     15 C15        29.6954  -42.2580  -56.0396 C.3       11 UNK         0.0169 
     16 S16        29.9434  -43.5124  -57.3335 S.3       11 UNK        -0.2669 
     17 C17        28.9131  -42.8487  -58.6867 C.3       11 UNK        -0.0850 
     18 CA         27.5287  -43.5573  -58.7656 C.3       10 UNK         0.0855 
     19 C          26.5668  -42.8960  -59.7998 C.2       10 UNK         0.5543 
     20 N          25.6844  -43.6444  -60.4510 N.am      10 UNK        -0.7343 
     21 O          26.5942  -41.6827  -59.9920 O.2       10 UNK        -0.5027 
     22 N          27.6424  -45.0241  -58.8718 N.am      10 UNK        -0.4495 
     23 C          28.1798  -45.7113  -59.8900 C.2       10 UNK         0.4903 
     24 O          28.6262  -45.1919  -60.9133 O.2       10 UNK        -0.4860 
     25 CA         28.2412  -47.2423  -59.7478 C.3       9 UNK         0.0227 
     26 CB         29.6844  -47.7030  -59.4873 C.3       9 UNK        -0.1964 
     27 N          27.3811  -47.7592  -58.6812 N.am      9 UNK        -0.4231 
     28 C          26.0579  -47.9442  -58.7825 C.2       9 UNK         0.5014 
     29 O          25.4041  -47.6588  -59.7878 O.2       9 UNK        -0.5270 
     30 CA         25.3610  -48.5444  -57.5449 C.3       8 UNK         0.0284 
     31 CB         23.9405  -49.0707  -57.8403 C.3       8 UNK        -0.1977 
     32 N          26.1783  -49.5695  -56.8844 N.am      8 UNK        -0.4342 
     33 C          26.6154  -50.7313  -57.3970 C.2       8 UNK         0.5039 
     34 O          26.3155  -51.1479  -58.5167 O.2       8 UNK        -0.5547 
     35 CA         27.5756  -51.5690  -56.5293 C.3       7 UNK         0.0281 
     36 CB         29.0065  -51.4809  -57.0855 C.3       7 UNK        -0.1963 
     37 N          27.5941  -51.1697  -55.1203 N.am      7 UNK        -0.4444 
     38 C          26.6015  -51.3837  -54.2467 C.2       7 UNK         0.5104 
     39 O          25.5773  -52.0148  -54.5082 O.2       7 UNK        -0.5100 
     40 CA         26.7675  -50.7475  -52.8575 C.3       6 UNK         0.0396 
     41 CB         27.5607  -51.6777  -51.9258 C.3       6 UNK        -0.1801 
     42 N          27.4217  -49.4366  -52.9150 N.am      6 UNK        -0.4747 
     43 C          26.8753  -48.3253  -53.4319 C.2       6 UNK         0.5012 
     44 O          25.7499  -48.2826  -53.9285 O.2       6 UNK        -0.5003 
     45 CA         27.7551  -47.0593  -53.4157 C.3       5 UNK         0.0782 
     46 C46        27.7629  -46.4019  -52.0059 C.3       11 UNK        -0.0868 
     47 S47        26.7143  -44.9089  -51.9604 S.3       11 UNK        -0.2515 
     48 C48        27.9002  -43.6036  -51.4987 C.3       11 UNK         0.0199 
     49 N          29.1052  -47.3331  -53.9206 N.am      5 UNK        -0.4607 
     50 C          29.3821  -47.6645  -55.1905 C.2       4 UNK         0.5031 
     51 O          28.5341  -47.7350  -56.0814 O.2       4 UNK        -0.5119 
     52 CA         30.8441  -48.0128  -55.5270 C.3       4 UNK         0.0263 
     53 CB         31.5981  -46.7416  -55.9378 C.3       4 UNK        -0.1967 
     54 N          31.5883  -48.6979  -54.4606 N.am      4 UNK        -0.4237 
     55 C          31.1893  -49.8024  -53.8102 C.2       3 UNK         0.4908 
     56 O          30.1156  -50.3629  -54.0327 O.2       3 UNK        -0.5102 
     57 CA         32.1123  -50.4008  -52.7302 C.3       3 UNK         0.0241 
     58 CB         32.3723  -51.8929  -53.0033 C.3       3 UNK        -0.1971 
     59 N          33.4013  -49.7237  -52.5643 N.am      3 UNK        -0.4139 
     60 C          33.6035  -48.5449  -51.9604 C.2       2 UNK         0.5016 
     61 O          32.6958  -47.8375  -51.5222 O.2       2 UNK        -0.5319 
     62 CA         35.0655  -48.0680  -51.8257 C.3       2 UNK         0.0286 
     63 CB         36.1139  -49.1748  -52.0838 C.3       2 UNK        -0.1963 
     64 N          35.3698  -46.8979  -52.6584 N.am      2 UNK        -0.4790 
     65 C          35.1666  -46.7599  -53.9791 C.2       1 UNK         0.5024 
     66 O          34.6081  -47.6059  -54.6789 O.2       1 UNK        -0.4888 
     67 H67        38.9028  -43.9316  -52.7771 H         1 UNK         0.0892 
     68 H68        39.6319  -45.5160  -52.5086 H         1 UNK         0.0892 
     69 H69        40.0454  -44.5861  -53.9516 H         1 UNK         0.0892 
     70 H70        36.7784  -44.0799  -53.4802 H         1 UNK         0.3107 
     71 H71        35.9663  -45.7403  -55.6560 H         1 UNK         0.0773 
     72 H72        34.9057  -43.6236  -55.4691 H         1 UNK         0.0680 
     73 H73        33.6732  -44.8037  -55.1807 H         1 UNK         0.0680 
     74 H74        32.8048  -45.4675  -52.9088 H         1 UNK         0.0650 
     75 H75        32.8182  -44.4503  -51.4965 H         1 UNK         0.0650 
     76 H76        30.4837  -44.3748  -51.1402 H         1 UNK         0.1397 
     77 H77        27.8721  -42.6035  -54.0356 H         1 UNK         0.1363 
     78 H78        32.0012  -43.2233  -54.9859 H         1 UNK         0.1355 
     79 H79        30.3815  -41.4261  -56.2045 H         1 UNK         0.0707 
     80 H80        28.6861  -41.8505  -56.1160 H         1 UNK         0.0707 
     81 H81        28.7944  -41.7725  -58.5487 H         1 UNK         0.1034 
     82 H82        29.4562  -42.9674  -59.6254 H         1 UNK         0.1034 
     83 H83        27.0371  -43.3869  -57.8072 H         1 UNK         0.0482 
     84 H84        25.6505  -44.6405  -60.2987 H         1 UNK         0.3460 
     85 H85        25.0572  -43.2107  -61.1099 H         1 UNK         0.3460 
     86 H86        27.3112  -45.5465  -58.0749 H         1 UNK         0.2989 
     87 H87        27.9147  -47.6732  -60.6966 H         1 UNK         0.0559 
     88 H88        30.0729  -47.2941  -58.5554 H         1 UNK         0.0848 
     89 H89        30.3499  -47.3773  -60.2880 H         1 UNK         0.0848 
     90 H90        29.7516  -48.7896  -59.4318 H         1 UNK         0.0848 
     91 H91        27.8259  -47.9450  -57.7833 H         1 UNK         0.3144 
     92 H92        25.2659  -47.7284  -56.8270 H         1 UNK         0.0727 
     93 H93        23.2956  -48.2704  -58.2054 H         1 UNK         0.0790 
     94 H94        23.4749  -49.4772  -56.9425 H         1 UNK         0.0790 
     95 H95        23.9474  -49.8534  -58.5994 H         1 UNK         0.0790 
     96 H96        26.5053  -49.3228  -55.9591 H         1 UNK         0.3215 
     97 H97        27.2462  -52.6087  -56.5850 H         1 UNK         0.0863 
     98 H98        29.6988  -52.0899  -56.5038 H         1 UNK         0.0808 
     99 H99        29.3752  -50.4553  -57.0792 H         1 UNK         0.0808 
    100 H100       29.0481  -51.8355  -58.1162 H         1 UNK         0.0808 
    101 H101       28.4371  -50.7082  -54.7823 H         1 UNK         0.3118 
    102 H102       25.7709  -50.6091  -52.4327 H         1 UNK         0.0546 
    103 H103       28.5755  -51.8471  -52.2882 H         1 UNK         0.0828 
    104 H104       27.0774  -52.6524  -51.8461 H         1 UNK         0.0828 
    105 H105       27.6279  -51.2677  -50.9181 H         1 UNK         0.0828 
    106 H106       28.3816  -49.3991  -52.6017 H         1 UNK         0.3005 
    107 H107       27.3073  -46.3648  -54.1313 H         1 UNK         0.1257 
    108 H108       28.7762  -46.1427  -51.7024 H         1 UNK         0.0775 
    109 H109       27.4137  -47.0796  -51.2237 H         1 UNK         0.0775 
    110 H110       27.3737  -42.6492  -51.4519 H         1 UNK         0.0840 
    111 H111       28.2657  -43.7967  -50.4888 H         1 UNK         0.0840 
    112 H112       29.8635  -47.2953  -53.2557 H         1 UNK         0.2987 
    113 H113       30.8252  -48.6865  -56.3848 H         1 UNK         0.0785 
    114 H114       31.7109  -46.0613  -55.0949 H         1 UNK         0.0798 
    115 H115       31.0644  -46.1999  -56.7185 H         1 UNK         0.0798 
    116 H116       32.5889  -46.9719  -56.3285 H         1 UNK         0.0798 
    117 H117       32.5046  -48.3258  -54.2426 H         1 UNK         0.3079 
    118 H118       31.5705  -50.3228  -51.7854 H         1 UNK         0.0794 
    119 H119       31.4376  -52.4528  -53.0618 H         1 UNK         0.0786 
    120 H120       32.9648  -52.3456  -52.2080 H         1 UNK         0.0786 
    121 H121       32.9010  -52.0437  -53.9453 H         1 UNK         0.0786 
    122 H122       34.2094  -50.2058  -52.9310 H         1 UNK         0.3032 
    123 H123       35.1759  -47.7491  -50.7877 H         1 UNK         0.1094 
    124 H124       37.1183  -48.8168  -51.8562 H         1 UNK         0.0794 
    125 H125       35.9386  -50.0454  -51.4500 H         1 UNK         0.0794 
    126 H126       36.1182  -49.5085  -53.1222 H         1 UNK         0.0794 
    127 H127       35.7999  -46.1210  -52.1763 H         1 UNK         0.3016 
@<TRIPOS>BOND
     1    1    2 1    
     2    1   67 1    
     3    1   68 1    
     4    1   69 1    
     5    2    3 2    
     6    2    4 am   BACKBONE|DICT|INTERRES
     7    4    5 1    
     8    4   70 1    
     9    5    6 1    
    10    5   65 1    
    11    5   71 1    
    12    6    7 1    
    13    6   72 1    
    14    6   73 1    
    15    7    8 1    
    16    8    9 1    
    17    8   74 1    
    18    8   75 1    
    19    9   10 ar   
    20    9   14 ar   
    21   10   11 ar   
    22   10   76 1    
    23   11   12 ar   
    24   11   48 1    
    25   12   13 ar   
    26   12   77 1    
    27   13   14 ar   
    28   13   15 1    
    29   14   78 1    
    30   15   16 1    
    31   15   79 1    
    32   15   80 1    
    33   16   17 1    
    34   17   18 1    
    35   17   81 1    
    36   17   82 1    
    37   18   19 1    
    38   18   22 1    
    39   18   83 1    
    40   19   20 am   BACKBONE|DICT|INTERRES
    41   19   21 2    
    42   20   84 1    
    43   20   85 1    
    44   22   23 am   BACKBONE|DICT|INTERRES
    45   22   86 1    
    46   23   24 2    
    47   23   25 1    
    48   25   26 1    
    49   25   27 1    
    50   25   87 1    
    51   26   88 1    
    52   26   89 1    
    53   26   90 1    
    54   27   28 am   BACKBONE|DICT|INTERRES
    55   27   91 1    
    56   28   29 2    
    57   28   30 1    
    58   30   31 1    
    59   30   32 1    
    60   30   92 1    
    61   31   93 1    
    62   31   94 1    
    63   31   95 1    
    64   32   33 am   BACKBONE|DICT|INTERRES
    65   32   96 1    
    66   33   34 2    
    67   33   35 1    
    68   35   36 1    
    69   35   37 1    
    70   35   97 1    
    71   36   98 1    
    72   36   99 1    
    73   36  100 1    
    74   37   38 am   BACKBONE|DICT|INTERRES
    75   37  101 1    
    76   38   39 2    
    77   38   40 1    
    78   40   41 1    
    79   40   42 1    
    80   40  102 1    
    81   41  103 1    
    82   41  104 1    
    83   41  105 1    
    84   42   43 am   BACKBONE|DICT|INTERRES
    85   42  106 1    
    86   43   44 2    
    87   43   45 1    
    88   45   46 1    
    89   45   49 1    
    90   45  107 1    
    91   46   47 1    
    92   46  108 1    
    93   46  109 1    
    94   47   48 1    
    95   48  110 1    
    96   48  111 1    
    97   49   50 am   BACKBONE|DICT|INTERRES
    98   49  112 1    
    99   50   51 2    
   100   50   52 1    
   101   52   53 1    
   102   52   54 1    
   103   52  113 1    
   104   53  114 1    
   105   53  115 1    
   106   53  116 1    
   107   54   55 am   BACKBONE|DICT|INTERRES
   108   54  117 1    
   109   55   56 2    
   110   55   57 1    
   111   57   58 1    
   112   57   59 1    
   113   57  118 1    
   114   58  119 1    
   115   58  120 1    
   116   58  121 1    
   117   59   60 am   BACKBONE|DICT|INTERRES
   118   59  122 1    
   119   60   61 2    
   120   60   62 1    
   121   62   63 1    
   122   62   64 1    
   123   62  123 1    
   124   63  124 1    
   125   63  125 1    
   126   63  126 1    
   127   64   65 am   BACKBONE|DICT|INTERRES
   128   64  127 1    
   129   65   66 2    
@<TRIPOS>SUBSTRUCTURE
     1 UNK         1 GROUP             0       ****    0 ROOT    
