@<TRIPOS>MOLECULE
3R134
127   129    1
SMALL
USER_CHARGES


@<TRIPOS>ATOM
      1 CA         33.3344  -44.5935  -51.3111 C.3       0 UNK        -0.1968 
      2 C          33.8041  -45.6793  -52.2686 C.2       0 UNK         0.4852 
      3 O          33.0610  -46.6345  -52.5045 O.2       0 UNK        -0.5359 
      4 N          35.0294  -45.5211  -52.8037 N.am      1 UNK        -0.4300 
      5 CA         35.7636  -46.4410  -53.6931 C.3       1 UNK         0.0863 
      6 C6         35.5121  -46.2293  -55.2198 C.3       11 UNK        -0.0953 
      7 S7         33.7786  -46.0044  -55.7500 S.3       11 UNK        -0.2369 
      8 C8         33.7458  -44.2291  -56.1429 C.3       11 UNK         0.0226 
      9 C9         32.3315  -43.6773  -56.0667 C.ar      11 UNK        -0.0699 
     10 C10        31.7348  -43.5085  -54.8165 C.ar      11 UNK        -0.0804 
     11 C11        30.4397  -43.0018  -54.7093 C.ar      11 UNK        -0.0871 
     12 C12        29.7611  -42.6048  -55.8622 C.ar      11 UNK        -0.1008 
     13 C13        30.3301  -42.7938  -57.1243 C.ar      11 UNK        -0.0735 
     14 C14        31.6192  -43.3342  -57.2216 C.ar      11 UNK        -0.0945 
     15 C15        29.5532  -42.4101  -58.3773 C.3       11 UNK         0.0169 
     16 S16        28.1489  -43.5340  -58.6935 S.3       11 UNK        -0.2669 
     17 C17        26.7803  -42.7665  -57.7500 C.3       11 UNK        -0.0850 
     18 CA         26.3369  -43.5952  -56.5039 C.3       10 UNK         0.0855 
     19 C          25.3169  -42.8568  -55.5818 C.2       10 UNK         0.5543 
     20 N          25.4640  -41.5532  -55.3811 N.am      10 UNK        -0.7343 
     21 O          24.4143  -43.4559  -54.9990 O.2       10 UNK        -0.5027 
     22 N          25.9300  -44.9655  -56.8419 N.am      10 UNK        -0.4495 
     23 C          24.8703  -45.3411  -57.5683 C.2       10 UNK         0.4903 
     24 O          24.0839  -44.5613  -58.1099 O.2       10 UNK        -0.4860 
     25 CA         24.6804  -46.8634  -57.7086 C.3       9 UNK         0.0227 
     26 CB         23.5110  -47.2571  -58.6364 C.3       9 UNK        -0.1964 
     27 N          25.9274  -47.5278  -58.1033 N.am      9 UNK        -0.4231 
     28 C          26.6202  -47.3618  -59.2415 C.2       9 UNK         0.5014 
     29 O          26.2366  -46.6786  -60.1921 O.2       9 UNK        -0.5270 
     30 CA         27.9850  -48.0688  -59.3447 C.3       8 UNK         0.0284 
     31 CB         29.1270  -47.0440  -59.2415 C.3       8 UNK        -0.1977 
     32 N          28.1882  -49.1025  -58.3272 N.am      8 UNK        -0.4342 
     33 C          27.6152  -50.3130  -58.3360 C.2       8 UNK         0.5039 
     34 O          26.8730  -50.7152  -59.2326 O.2       8 UNK        -0.5547 
     35 CA         27.9022  -51.2184  -57.1270 C.3       7 UNK         0.0281 
     36 CB         29.2650  -51.9133  -57.2807 C.3       7 UNK        -0.1963 
     37 N          27.8524  -50.4937  -55.8529 N.am      7 UNK        -0.4444 
     38 C          26.7348  -49.9955  -55.3047 C.2       7 UNK         0.5104 
     39 O          25.6198  -50.0842  -55.8177 O.2       7 UNK        -0.5100 
     40 CA         26.8879  -49.2574  -53.9645 C.3       6 UNK         0.0396 
     41 CB         26.8885  -50.2533  -52.7943 C.3       6 UNK        -0.1801 
     42 N          28.0971  -48.4350  -53.9080 N.am      6 UNK        -0.4747 
     43 C          28.2698  -47.2996  -54.6039 C.2       6 UNK         0.5012 
     44 O          27.4222  -46.8338  -55.3661 O.2       6 UNK        -0.5003 
     45 CA         29.6447  -46.6049  -54.4667 C.3       5 UNK         0.0782 
     46 C46        29.7215  -45.7734  -53.1580 C.3       11 UNK        -0.0868 
     47 S47        28.6066  -44.3224  -53.1265 S.3       11 UNK        -0.2515 
     48 C48        29.7567  -42.9262  -53.3547 C.3       11 UNK         0.0199 
     49 N          30.7511  -47.5711  -54.5468 N.am      5 UNK        -0.4607 
     50 C          30.9231  -48.4750  -55.5255 C.2       4 UNK         0.5031 
     51 O          30.2575  -48.4896  -56.5592 O.2       4 UNK        -0.5119 
     52 CA         31.9201  -49.6242  -55.2947 C.3       4 UNK         0.0263 
     53 CB         33.0827  -49.6028  -56.2988 C.3       4 UNK        -0.1967 
     54 N          32.4237  -49.7261  -53.9228 N.am      4 UNK        -0.4237 
     55 C          31.6790  -50.1448  -52.8849 C.2       3 UNK         0.4908 
     56 O          30.4764  -50.3978  -52.9869 O.2       3 UNK        -0.5102 
     57 CA         32.3601  -50.3193  -51.5160 C.3       3 UNK         0.0241 
     58 CB         32.0164  -51.6782  -50.8777 C.3       3 UNK        -0.1971 
     59 N          33.8130  -50.1801  -51.6082 N.am      3 UNK        -0.4139 
     60 C          34.5782  -49.5118  -50.7402 C.2       2 UNK         0.5016 
     61 O          34.1674  -49.0219  -49.6871 O.2       2 UNK        -0.5319 
     62 CA         36.0507  -49.3108  -51.1337 C.3       2 UNK         0.0286 
     63 CB         36.7034  -50.5570  -51.7744 C.3       2 UNK        -0.1963 
     64 N          36.1926  -48.1130  -51.9700 N.am      2 UNK        -0.4790 
     65 C          35.7020  -47.9058  -53.2037 C.2       1 UNK         0.5024 
     66 O          35.1764  -48.7823  -53.8922 O.2       1 UNK        -0.4888 
     67 H67        33.4294  -44.9405  -50.2825 H         1 UNK         0.0892 
     68 H68        33.9139  -43.6768  -51.4190 H         1 UNK         0.0892 
     69 H69        32.2875  -44.3527  -51.4887 H         1 UNK         0.0892 
     70 H70        35.5534  -44.6986  -52.5396 H         1 UNK         0.3107 
     71 H71        36.8116  -46.1726  -53.5472 H         1 UNK         0.0773 
     72 H72        36.0776  -45.3556  -55.5463 H         1 UNK         0.0680 
     73 H73        35.9331  -47.0558  -55.7950 H         1 UNK         0.0680 
     74 H74        34.1776  -44.0700  -57.1320 H         1 UNK         0.0650 
     75 H75        34.3730  -43.6846  -55.4354 H         1 UNK         0.0650 
     76 H76        32.2759  -43.8000  -53.9290 H         1 UNK         0.1397 
     77 H77        28.7742  -42.1775  -55.7744 H         1 UNK         0.1363 
     78 H78        32.0714  -43.4795  -58.1930 H         1 UNK         0.1355 
     79 H79        30.2112  -42.4412  -59.2471 H         1 UNK         0.0707 
     80 H80        29.2089  -41.3779  -58.3024 H         1 UNK         0.0707 
     81 H81        27.0832  -41.7595  -57.4656 H         1 UNK         0.1034 
     82 H82        25.9365  -42.6316  -58.4283 H         1 UNK         0.1034 
     83 H83        27.2090  -43.7442  -55.8704 H         1 UNK         0.0482 
     84 H84        26.2031  -41.0271  -55.8174 H         1 UNK         0.3460 
     85 H85        24.8144  -41.0831  -54.7700 H         1 UNK         0.3460 
     86 H86        26.4877  -45.6930  -56.3980 H         1 UNK         0.2989 
     87 H87        24.4448  -47.2358  -56.7104 H         1 UNK         0.0559 
     88 H88        22.5677  -46.8581  -58.2616 H         1 UNK         0.0848 
     89 H89        23.4030  -48.3399  -58.6996 H         1 UNK         0.0848 
     90 H90        23.6443  -46.8728  -59.6479 H         1 UNK         0.0848 
     91 H91        26.3544  -48.1010  -57.3884 H         1 UNK         0.3144 
     92 H92        28.0363  -48.5401  -60.3284 H         1 UNK         0.0727 
     93 H93        29.1207  -46.5319  -58.2777 H         1 UNK         0.0790 
     94 H94        29.0403  -46.2809  -60.0160 H         1 UNK         0.0790 
     95 H95        30.1011  -47.5187  -59.3606 H         1 UNK         0.0790 
     96 H96        28.8451  -48.8747  -57.5794 H         1 UNK         0.3215 
     97 H97        27.1301  -51.9908  -57.0998 H         1 UNK         0.0863 
     98 H98        30.0788  -51.1948  -57.3820 H         1 UNK         0.0808 
     99 H99        29.2787  -52.5406  -58.1730 H         1 UNK         0.0808 
    100 H100       29.4847  -52.5578  -56.4293 H         1 UNK         0.0808 
    101 H101       28.7251  -50.3523  -55.3654 H         1 UNK         0.3118 
    102 H102       26.0244  -48.5989  -53.8464 H         1 UNK         0.0546 
    103 H103       27.7393  -50.9344  -52.8407 H         1 UNK         0.0828 
    104 H104       25.9833  -50.8620  -52.8001 H         1 UNK         0.0828 
    105 H105       26.9248  -49.7377  -51.8346 H         1 UNK         0.0828 
    106 H106       28.8662  -48.7910  -53.3530 H         1 UNK         0.3005 
    107 H107       29.7563  -45.9283  -55.3176 H         1 UNK         0.1257 
    108 H108       30.7410  -45.4257  -53.0038 H         1 UNK         0.0775 
    109 H109       29.4983  -46.3972  -52.2905 H         1 UNK         0.0775 
    110 H110       29.2008  -41.9908  -53.2748 H         1 UNK         0.0840 
    111 H111       30.4885  -42.9168  -52.5458 H         1 UNK         0.0840 
    112 H112       31.3978  -47.5817  -53.7670 H         1 UNK         0.2987 
    113 H113       31.3611  -50.5407  -55.4912 H         1 UNK         0.0785 
    114 H114       32.7177  -49.5113  -57.3227 H         1 UNK         0.0798 
    115 H115       33.6653  -50.5224  -56.2443 H         1 UNK         0.0798 
    116 H116       33.7628  -48.7736  -56.1208 H         1 UNK         0.0798 
    117 H117       33.3813  -49.4158  -53.7773 H         1 UNK         0.3079 
    118 H118       31.9567  -49.5262  -50.8827 H         1 UNK         0.0794 
    119 H119       32.4619  -51.7737  -49.8873 H         1 UNK         0.0786 
    120 H120       32.3724  -52.5094  -51.4875 H         1 UNK         0.0786 
    121 H121       30.9387  -51.7972  -50.7579 H         1 UNK         0.0786 
    122 H122       34.2481  -50.5252  -52.4530 H         1 UNK         0.3032 
    123 H123       36.5908  -49.1072  -50.2071 H         1 UNK         0.1094 
    124 H124       36.6007  -51.4250  -51.1218 H         1 UNK         0.0794 
    125 H125       36.2689  -50.8234  -52.7374 H         1 UNK         0.0794 
    126 H126       37.7705  -50.3990  -51.9308 H         1 UNK         0.0794 
    127 H127       36.5690  -47.3079  -51.4878 H         1 UNK         0.3016 
@<TRIPOS>BOND
     1    1    2 1    
     2    1   67 1    
     3    1   68 1    
     4    1   69 1    
     5    2    3 2    
     6    2    4 am   BACKBONE|DICT|INTERRES
     7    4    5 1    
     8    4   70 1    
     9    5    6 1    
    10    5   65 1    
    11    5   71 1    
    12    6    7 1    
    13    6   72 1    
    14    6   73 1    
    15    7    8 1    
    16    8    9 1    
    17    8   74 1    
    18    8   75 1    
    19    9   10 ar   
    20    9   14 ar   
    21   10   11 ar   
    22   10   76 1    
    23   11   12 ar   
    24   11   48 1    
    25   12   13 ar   
    26   12   77 1    
    27   13   14 ar   
    28   13   15 1    
    29   14   78 1    
    30   15   16 1    
    31   15   79 1    
    32   15   80 1    
    33   16   17 1    
    34   17   18 1    
    35   17   81 1    
    36   17   82 1    
    37   18   19 1    
    38   18   22 1    
    39   18   83 1    
    40   19   20 am   BACKBONE|DICT|INTERRES
    41   19   21 2    
    42   20   84 1    
    43   20   85 1    
    44   22   23 am   BACKBONE|DICT|INTERRES
    45   22   86 1    
    46   23   24 2    
    47   23   25 1    
    48   25   26 1    
    49   25   27 1    
    50   25   87 1    
    51   26   88 1    
    52   26   89 1    
    53   26   90 1    
    54   27   28 am   BACKBONE|DICT|INTERRES
    55   27   91 1    
    56   28   29 2    
    57   28   30 1    
    58   30   31 1    
    59   30   32 1    
    60   30   92 1    
    61   31   93 1    
    62   31   94 1    
    63   31   95 1    
    64   32   33 am   BACKBONE|DICT|INTERRES
    65   32   96 1    
    66   33   34 2    
    67   33   35 1    
    68   35   36 1    
    69   35   37 1    
    70   35   97 1    
    71   36   98 1    
    72   36   99 1    
    73   36  100 1    
    74   37   38 am   BACKBONE|DICT|INTERRES
    75   37  101 1    
    76   38   39 2    
    77   38   40 1    
    78   40   41 1    
    79   40   42 1    
    80   40  102 1    
    81   41  103 1    
    82   41  104 1    
    83   41  105 1    
    84   42   43 am   BACKBONE|DICT|INTERRES
    85   42  106 1    
    86   43   44 2    
    87   43   45 1    
    88   45   46 1    
    89   45   49 1    
    90   45  107 1    
    91   46   47 1    
    92   46  108 1    
    93   46  109 1    
    94   47   48 1    
    95   48  110 1    
    96   48  111 1    
    97   49   50 am   BACKBONE|DICT|INTERRES
    98   49  112 1    
    99   50   51 2    
   100   50   52 1    
   101   52   53 1    
   102   52   54 1    
   103   52  113 1    
   104   53  114 1    
   105   53  115 1    
   106   53  116 1    
   107   54   55 am   BACKBONE|DICT|INTERRES
   108   54  117 1    
   109   55   56 2    
   110   55   57 1    
   111   57   58 1    
   112   57   59 1    
   113   57  118 1    
   114   58  119 1    
   115   58  120 1    
   116   58  121 1    
   117   59   60 am   BACKBONE|DICT|INTERRES
   118   59  122 1    
   119   60   61 2    
   120   60   62 1    
   121   62   63 1    
   122   62   64 1    
   123   62  123 1    
   124   63  124 1    
   125   63  125 1    
   126   63  126 1    
   127   64   65 am   BACKBONE|DICT|INTERRES
   128   64  127 1    
   129   65   66 2    
@<TRIPOS>SUBSTRUCTURE
     1 UNK         1 GROUP             0       ****    0 ROOT    
