@<TRIPOS>MOLECULE
3R134
127   129    1
SMALL
USER_CHARGES


@<TRIPOS>ATOM
      1 CA         32.3798  -49.1162  -57.5450 C.3       0 UNK        -0.1968 
      2 C          32.8378  -48.2818  -56.3592 C.2       0 UNK         0.4852 
      3 O          32.8978  -48.7945  -55.2418 O.2       0 UNK        -0.5359 
      4 N          33.1501  -46.9991  -56.5858 N.am      1 UNK        -0.4300 
      5 CA         33.5481  -46.0219  -55.5657 C.3       1 UNK         0.0863 
      6 C6         33.8653  -44.6413  -56.1867 C.3       11 UNK        -0.0953 
      7 S7         32.4185  -43.9086  -57.0222 S.3       11 UNK        -0.2369 
      8 C8         31.9950  -42.5239  -55.9172 C.3       11 UNK         0.0226 
      9 C9         31.1486  -42.9606  -54.7281 C.ar      11 UNK        -0.0699 
     10 C10        31.7470  -43.5328  -53.6014 C.ar      11 UNK        -0.0804 
     11 C11        30.9757  -43.8992  -52.4951 C.ar      11 UNK        -0.0871 
     12 C12        29.5954  -43.6716  -52.5157 C.ar      11 UNK        -0.1008 
     13 C13        28.9828  -43.0930  -53.6310 C.ar      11 UNK        -0.0735 
     14 C14        29.7664  -42.7451  -54.7356 C.ar      11 UNK        -0.0945 
     15 C15        27.4889  -42.7892  -53.6056 C.3       11 UNK         0.0169 
     16 S16        26.5082  -43.9702  -54.5868 S.3       11 UNK        -0.2669 
     17 C17        26.2803  -43.0308  -56.1412 C.3       11 UNK        -0.0850 
     18 CA         25.9971  -43.9282  -57.3846 C.3       10 UNK         0.0855 
     19 C          25.7760  -43.1094  -58.6924 C.2       10 UNK         0.5543 
     20 N          24.9572  -42.0660  -58.6466 N.am      10 UNK        -0.7343 
     21 O          26.3017  -43.4184  -59.7602 O.2       10 UNK        -0.5027 
     22 N          26.9655  -45.0233  -57.5327 N.am      10 UNK        -0.4495 
     23 C          28.2943  -44.9068  -57.6599 C.2       10 UNK         0.4903 
     24 O          28.8914  -43.8348  -57.7533 O.2       10 UNK        -0.4860 
     25 CA         29.0985  -46.2190  -57.6502 C.3       9 UNK         0.0227 
     26 CB         29.4989  -46.5619  -56.2068 C.3       9 UNK        -0.1964 
     27 N          28.3511  -47.3389  -58.2329 N.am      9 UNK        -0.4231 
     28 C          28.0971  -47.4556  -59.5458 C.2       9 UNK         0.5014 
     29 O          28.5766  -46.7091  -60.4004 O.2       9 UNK        -0.5270 
     30 CA         27.1474  -48.5796  -60.0027 C.3       8 UNK         0.0284 
     31 CB         27.9534  -49.7796  -60.5271 C.3       8 UNK        -0.1977 
     32 N          26.2078  -49.0463  -58.9799 N.am      8 UNK        -0.4342 
     33 C          25.2700  -48.3092  -58.3684 C.2       8 UNK         0.5039 
     34 O          25.0843  -47.1120  -58.5854 O.2       8 UNK        -0.5547 
     35 CA         24.4155  -49.0143  -57.2978 C.3       7 UNK         0.0281 
     36 CB         24.3870  -50.5537  -57.4395 C.3       7 UNK        -0.1963 
     37 N          24.8082  -48.6452  -55.9313 N.am      7 UNK        -0.4444 
     38 C          26.0382  -48.7046  -55.4006 C.2       7 UNK         0.5104 
     39 O          27.0551  -48.9937  -56.0389 O.2       7 UNK        -0.5100 
     40 CA         26.1395  -48.4211  -53.8955 C.3       6 UNK         0.0396 
     41 CB         25.4960  -49.5583  -53.0768 C.3       6 UNK        -0.1801 
     42 N          27.5493  -48.2905  -53.5472 N.am      6 UNK        -0.4747 
     43 C          28.0620  -47.7629  -52.4330 C.2       6 UNK         0.5012 
     44 O          27.3715  -47.3615  -51.4942 O.2       6 UNK        -0.5003 
     45 CA         29.6051  -47.6809  -52.3609 C.3       5 UNK         0.0782 
     46 C46        30.1004  -46.8579  -51.1447 C.3       11 UNK        -0.0868 
     47 S47        31.8225  -46.3030  -51.3722 S.3       11 UNK        -0.2515 
     48 C48        31.6445  -44.4928  -51.2619 C.3       11 UNK         0.0199 
     49 N          30.2329  -49.0087  -52.3661 N.am      5 UNK        -0.4607 
     50 C          30.3186  -49.8470  -53.4043 C.2       4 UNK         0.5031 
     51 O          29.8592  -49.6086  -54.5206 O.2       4 UNK        -0.5119 
     52 CA         31.1132  -51.1337  -53.1651 C.3       4 UNK         0.0263 
     53 CB         30.6540  -52.2936  -54.0694 C.3       4 UNK        -0.1967 
     54 N          32.5074  -50.8129  -53.4341 N.am      4 UNK        -0.4237 
     55 C          33.5775  -51.3937  -52.8824 C.2       3 UNK         0.4908 
     56 O          33.5162  -52.3173  -52.0701 O.2       3 UNK        -0.5102 
     57 CA         34.9479  -50.8334  -53.2896 C.3       3 UNK         0.0241 
     58 CB         35.3287  -51.2948  -54.7072 C.3       3 UNK        -0.1971 
     59 N          34.9417  -49.3687  -53.2333 N.am      3 UNK        -0.4139 
     60 C          35.6460  -48.6299  -52.3644 C.2       2 UNK         0.5016 
     61 O          36.4362  -49.1131  -51.5515 O.2       2 UNK        -0.5319 
     62 CA         35.4236  -47.1018  -52.3533 C.3       2 UNK         0.0286 
     63 CB         36.7529  -46.3168  -52.3292 C.3       2 UNK        -0.1963 
     64 N          34.5184  -46.5979  -53.3962 N.am      2 UNK        -0.4790 
     65 C          34.7370  -46.5196  -54.7170 C.2       1 UNK         0.5024 
     66 O          35.7906  -46.8376  -55.2715 O.2       1 UNK        -0.4888 
     67 H67        32.3000  -48.5231  -58.4557 H         1 UNK         0.0892 
     68 H68        33.0819  -49.9297  -57.7245 H         1 UNK         0.0892 
     69 H69        31.4013  -49.5489  -57.3357 H         1 UNK         0.0892 
     70 H70        33.0957  -46.6345  -57.5256 H         1 UNK         0.3107 
     71 H71        32.6860  -45.9072  -54.9056 H         1 UNK         0.0773 
     72 H72        34.2354  -43.9484  -55.4295 H         1 UNK         0.0680 
     73 H73        34.6679  -44.7311  -56.9212 H         1 UNK         0.0680 
     74 H74        31.4521  -41.7804  -56.5027 H         1 UNK         0.0650 
     75 H75        32.9021  -42.0252  -55.5728 H         1 UNK         0.0650 
     76 H76        32.8171  -43.6796  -53.5770 H         1 UNK         0.1397 
     77 H77        28.9950  -43.9192  -51.6518 H         1 UNK         0.1363 
     78 H78        29.3051  -42.2869  -55.5982 H         1 UNK         0.1355 
     79 H79        27.3128  -41.7704  -53.9537 H         1 UNK         0.0707 
     80 H80        27.1204  -42.8164  -52.5789 H         1 UNK         0.0707 
     81 H81        27.1569  -42.4096  -56.3244 H         1 UNK         0.1034 
     82 H82        25.4558  -42.3365  -55.9752 H         1 UNK         0.1034 
     83 H83        25.0474  -44.4349  -57.2096 H         1 UNK         0.0482 
     84 H84        24.4807  -41.8054  -57.7981 H         1 UNK         0.3460 
     85 H85        24.7969  -41.5376  -59.4901 H         1 UNK         0.3460 
     86 H86        26.5516  -45.9449  -57.5972 H         1 UNK         0.2989 
     87 H87        30.0106  -46.0685  -58.2317 H         1 UNK         0.0559 
     88 H88        28.6274  -46.6242  -55.5551 H         1 UNK         0.0848 
     89 H89        30.1556  -45.7951  -55.7933 H         1 UNK         0.0848 
     90 H90        30.0270  -47.5121  -56.1521 H         1 UNK         0.0848 
     91 H91        27.9278  -48.0000  -57.5869 H         1 UNK         0.3144 
     92 H92        26.5535  -48.1799  -60.8273 H         1 UNK         0.0727 
     93 H93        27.3010  -50.5438  -60.9500 H         1 UNK         0.0790 
     94 H94        28.5481  -50.2416  -59.7378 H         1 UNK         0.0790 
     95 H95        28.6420  -49.4729  -61.3160 H         1 UNK         0.0790 
     96 H96        26.3073  -50.0071  -58.6852 H         1 UNK         0.3215 
     97 H97        23.3957  -48.6529  -57.4403 H         1 UNK         0.0863 
     98 H98        25.3521  -51.0109  -57.2182 H         1 UNK         0.0808 
     99 H99        24.0965  -50.8536  -58.4476 H         1 UNK         0.0808 
    100 H100       23.6579  -50.9916  -56.7576 H         1 UNK         0.0808 
    101 H101       24.0507  -48.3484  -55.3318 H         1 UNK         0.3118 
    102 H102       25.6338  -47.4761  -53.6868 H         1 UNK         0.0546 
    103 H103       25.5463  -49.3608  -52.0062 H         1 UNK         0.0828 
    104 H104       25.9899  -50.5129  -53.2630 H         1 UNK         0.0828 
    105 H105       24.4419  -49.6823  -53.3267 H         1 UNK         0.0828 
    106 H106       28.1877  -48.6503  -54.2576 H         1 UNK         0.3005 
    107 H107       29.9163  -47.1559  -53.2675 H         1 UNK         0.1257 
    108 H108       30.0374  -47.4460  -50.2275 H         1 UNK         0.0775 
    109 H109       29.4707  -45.9872  -50.9694 H         1 UNK         0.0775 
    110 H110       31.0870  -44.2331  -50.3605 H         1 UNK         0.0840 
    111 H111       32.6349  -44.0528  -51.1350 H         1 UNK         0.0840 
    112 H112       30.6609  -49.2848  -51.4947 H         1 UNK         0.2987 
    113 H113       30.9923  -51.4303  -52.1209 H         1 UNK         0.0785 
    114 H114       31.2026  -53.2092  -53.8482 H         1 UNK         0.0798 
    115 H115       29.5940  -52.5046  -53.9233 H         1 UNK         0.0798 
    116 H116       30.8000  -52.0638  -55.1258 H         1 UNK         0.0798 
    117 H117       32.6438  -50.0531  -54.1057 H         1 UNK         0.3079 
    118 H118       35.6865  -51.2416  -52.5965 H         1 UNK         0.0794 
    119 H119       36.3229  -50.9415  -54.9814 H         1 UNK         0.0786 
    120 H120       34.6276  -50.9306  -55.4587 H         1 UNK         0.0786 
    121 H121       35.3414  -52.3835  -54.7724 H         1 UNK         0.0786 
    122 H122       34.3045  -48.8991  -53.8698 H         1 UNK         0.3032 
    123 H123       34.9174  -46.8977  -51.4083 H         1 UNK         0.1094 
    124 H124       37.3738  -46.5376  -53.1976 H         1 UNK         0.0794 
    125 H125       36.5793  -45.2411  -52.3029 H         1 UNK         0.0794 
    126 H126       37.3388  -46.5694  -51.4446 H         1 UNK         0.0794 
    127 H127       33.5968  -46.3509  -53.0560 H         1 UNK         0.3016 
@<TRIPOS>BOND
     1    1    2 1    
     2    1   67 1    
     3    1   68 1    
     4    1   69 1    
     5    2    3 2    
     6    2    4 am   BACKBONE|DICT|INTERRES
     7    4    5 1    
     8    4   70 1    
     9    5    6 1    
    10    5   65 1    
    11    5   71 1    
    12    6    7 1    
    13    6   72 1    
    14    6   73 1    
    15    7    8 1    
    16    8    9 1    
    17    8   74 1    
    18    8   75 1    
    19    9   10 ar   
    20    9   14 ar   
    21   10   11 ar   
    22   10   76 1    
    23   11   12 ar   
    24   11   48 1    
    25   12   13 ar   
    26   12   77 1    
    27   13   14 ar   
    28   13   15 1    
    29   14   78 1    
    30   15   16 1    
    31   15   79 1    
    32   15   80 1    
    33   16   17 1    
    34   17   18 1    
    35   17   81 1    
    36   17   82 1    
    37   18   19 1    
    38   18   22 1    
    39   18   83 1    
    40   19   20 am   BACKBONE|DICT|INTERRES
    41   19   21 2    
    42   20   84 1    
    43   20   85 1    
    44   22   23 am   BACKBONE|DICT|INTERRES
    45   22   86 1    
    46   23   24 2    
    47   23   25 1    
    48   25   26 1    
    49   25   27 1    
    50   25   87 1    
    51   26   88 1    
    52   26   89 1    
    53   26   90 1    
    54   27   28 am   BACKBONE|DICT|INTERRES
    55   27   91 1    
    56   28   29 2    
    57   28   30 1    
    58   30   31 1    
    59   30   32 1    
    60   30   92 1    
    61   31   93 1    
    62   31   94 1    
    63   31   95 1    
    64   32   33 am   BACKBONE|DICT|INTERRES
    65   32   96 1    
    66   33   34 2    
    67   33   35 1    
    68   35   36 1    
    69   35   37 1    
    70   35   97 1    
    71   36   98 1    
    72   36   99 1    
    73   36  100 1    
    74   37   38 am   BACKBONE|DICT|INTERRES
    75   37  101 1    
    76   38   39 2    
    77   38   40 1    
    78   40   41 1    
    79   40   42 1    
    80   40  102 1    
    81   41  103 1    
    82   41  104 1    
    83   41  105 1    
    84   42   43 am   BACKBONE|DICT|INTERRES
    85   42  106 1    
    86   43   44 2    
    87   43   45 1    
    88   45   46 1    
    89   45   49 1    
    90   45  107 1    
    91   46   47 1    
    92   46  108 1    
    93   46  109 1    
    94   47   48 1    
    95   48  110 1    
    96   48  111 1    
    97   49   50 am   BACKBONE|DICT|INTERRES
    98   49  112 1    
    99   50   51 2    
   100   50   52 1    
   101   52   53 1    
   102   52   54 1    
   103   52  113 1    
   104   53  114 1    
   105   53  115 1    
   106   53  116 1    
   107   54   55 am   BACKBONE|DICT|INTERRES
   108   54  117 1    
   109   55   56 2    
   110   55   57 1    
   111   57   58 1    
   112   57   59 1    
   113   57  118 1    
   114   58  119 1    
   115   58  120 1    
   116   58  121 1    
   117   59   60 am   BACKBONE|DICT|INTERRES
   118   59  122 1    
   119   60   61 2    
   120   60   62 1    
   121   62   63 1    
   122   62   64 1    
   123   62  123 1    
   124   63  124 1    
   125   63  125 1    
   126   63  126 1    
   127   64   65 am   BACKBONE|DICT|INTERRES
   128   64  127 1    
   129   65   66 2    
@<TRIPOS>SUBSTRUCTURE
     1 UNK         1 GROUP             0       ****    0 ROOT    
