@<TRIPOS>MOLECULE
3R543
247   249    1
SMALL
USER_CHARGES


@<TRIPOS>ATOM
      1 CA        -71.9519   28.8350    3.2743 C.3       0 UNK        -0.1800 
      2 C         -71.2253   28.1470    4.4203 C.2       0 UNK         0.5000 
      3 O         -70.1119   28.5442    4.7631 O.2       0 UNK        -0.5000 
      4 N         -71.8453   27.1134    5.0050 N.am      1 UNK        -0.5000 
      5 CA        -71.3156   26.3600    6.1508 C.3       1 UNK         0.1400 
      6 C6        -72.3792   25.4421    6.8079 C.3       23 UNK        -0.0398 
      7 S7        -73.9865   26.2179    7.1848 S.3       23 UNK        -0.2404 
      8 C8        -73.5393   27.4967    8.4037 C.3       23 UNK        -0.0205 
      9 C9        -73.2094   28.8538    7.7872 C.ar      23 UNK        -0.0193 
     10 C10       -73.9211   29.3489    6.6869 C.ar      23 UNK        -0.1150 
     11 C11       -73.6076   30.5933    6.1343 C.ar      23 UNK        -0.0193 
     12 C12       -72.5941   31.3628    6.7092 C.ar      23 UNK        -0.1150 
     13 C13       -71.8939   30.8963    7.8247 C.ar      23 UNK        -0.0193 
     14 C14       -72.1981   29.6375    8.3509 C.ar      23 UNK        -0.1150 
     15 C15       -70.8018   31.7487    8.4504 C.3       23 UNK        -0.0205 
     16 S16       -71.3007   32.3952   10.0783 S.3       23 UNK        -0.2404 
     17 C17       -70.0588   33.7157   10.3163 C.3       23 UNK        -0.0398 
     18 CA        -70.6827   35.1096   10.6204 C.3       22 UNK         0.1400 
     19 C         -69.5960   36.2080   10.8355 C.2       22 UNK         0.5000 
     20 N         -69.7843   37.4401   10.3741 N.am      22 UNK        -0.7600 
     21 O         -68.5699   35.9504   11.4594 O.2       22 UNK        -0.5000 
     22 N         -71.7658   35.5038    9.7046 N.am      22 UNK        -0.5000 
     23 C         -71.6934   35.6334    8.3728 C.2       22 UNK         0.5000 
     24 O         -70.6965   35.3638    7.7024 O.2       22 UNK        -0.5000 
     25 CA        -72.9442   36.2023    7.6729 C.3       21 UNK         0.1400 
     26 CB        -73.8185   35.0644    7.1271 C.3       21 UNK        -0.1800 
     27 N         -73.7516   37.0578    8.5485 N.am      21 UNK        -0.5000 
     28 C         -73.3400   38.2354    9.0466 C.2       21 UNK         0.5000 
     29 O         -72.2458   38.7372    8.7843 O.2       21 UNK        -0.5000 
     30 CA        -74.2755   38.9563   10.0382 C.3       20 UNK         0.1400 
     31 CB        -75.1309   40.0007    9.3055 C.3       20 UNK        -0.1800 
     32 N         -75.1583   38.0553   10.7805 N.am      20 UNK        -0.5000 
     33 C         -74.7595   37.0802   11.6099 C.2       20 UNK         0.5000 
     34 O         -73.5801   36.8533   11.8823 O.2       20 UNK        -0.5000 
     35 CA        -75.8606   36.1765   12.1958 C.3       19 UNK         0.1400 
     36 CB        -76.2518   36.6395   13.6066 C.3       19 UNK        -0.1800 
     37 N         -77.0707   36.0894   11.3714 N.am      19 UNK        -0.5000 
     38 C         -77.1317   35.6170   10.1195 C.2       19 UNK         0.5000 
     39 O         -76.1416   35.2568    9.4824 O.2       19 UNK        -0.5000 
     40 CA        -78.5373   35.5347    9.4886 C.3       18 UNK         0.1400 
     41 CB        -78.5126   34.9877    8.0494 C.3       18 UNK        -0.1800 
     42 N         -79.4471   34.7266   10.3082 N.am      18 UNK        -0.5000 
     43 C         -80.0953   35.1721   11.3955 C.2       18 UNK         0.5000 
     44 O         -80.0286   36.3353   11.7947 O.2       18 UNK        -0.5000 
     45 CA        -80.8848   34.1372   12.2109 C.3       17 UNK         0.1400 
     46 CB        -82.2173   33.7813   11.5345 C.3       17 UNK        -0.1800 
     47 N         -80.0795   32.9320   12.4039 N.am      17 UNK        -0.5000 
     48 C         -79.2963   32.7163   13.4720 C.2       17 UNK         0.5000 
     49 O         -79.2470   33.4642   14.4491 O.2       17 UNK        -0.5000 
     50 CA        -78.3948   31.4689   13.4357 C.3       16 UNK         0.1400 
     51 CB        -79.1302   30.2445   13.9979 C.3       16 UNK        -0.1800 
     52 N         -77.9126   31.1956   12.0803 N.am      16 UNK        -0.5000 
     53 C         -76.9290   31.8991   11.4987 C.2       16 UNK         0.5000 
     54 O         -76.2672   32.7413   12.1039 O.2       16 UNK        -0.5000 
     55 CA        -76.6674   31.6784    9.9950 C.3       15 UNK         0.1400 
     56 CB        -75.1700   31.7480    9.6285 C.3       15 UNK        -0.1800 
     57 N         -77.3089   30.4837    9.4391 N.am      15 UNK        -0.5000 
     58 C         -77.0033   29.2020    9.6851 C.2       15 UNK         0.5000 
     59 O         -76.1177   28.8396   10.4595 O.2       15 UNK        -0.5000 
     60 CA        -77.8992   28.1666    8.9723 C.3       14 UNK         0.1400 
     61 CB        -77.6528   26.7173    9.4398 C.3       14 UNK        -0.1800 
     62 N         -79.3221   28.5181    9.0715 N.am      14 UNK        -0.5000 
     63 C         -80.0303   28.6891   10.2006 C.2       14 UNK         0.5000 
     64 O         -79.5693   28.5054   11.3262 O.2       14 UNK        -0.5000 
     65 CA        -81.4808   29.1955   10.0403 C.3       13 UNK         0.1400 
     66 CB        -82.0659   29.7960   11.3346 C.3       13 UNK        -0.1800 
     67 N         -81.6382   30.1359    8.9278 N.am      13 UNK        -0.5000 
     68 C         -80.9905   31.2938    8.7408 C.2       13 UNK         0.5000 
     69 O         -80.1717   31.7860    9.5273 O.2       13 UNK        -0.5000 
     70 CA        -81.2731   31.9892    7.3987 C.3       12 UNK         0.1400 
     71 CB        -81.8991   33.3750    7.6142 C.3       12 UNK        -0.1800 
     72 N         -80.0599   32.1027    6.5857 N.am      12 UNK        -0.5000 
     73 C         -79.3346   31.0626    6.1458 C.2       12 UNK         0.5000 
     74 O         -79.6101   29.8905    6.4101 O.2       12 UNK        -0.5000 
     75 CA        -78.1021   31.4112    5.2831 C.3       11 UNK         0.1400 
     76 C76       -76.8318   31.5967    6.1546 C.3       23 UNK        -0.0398 
     77 S77       -75.4957   32.4441    5.2500 S.3       23 UNK        -0.2404 
     78 C78       -74.3341   31.0903    4.8937 C.3       23 UNK        -0.0205 
     79 N         -77.9318   30.4851    4.1545 N.am      11 UNK        -0.5000 
     80 C         -77.5320   29.2049    4.1797 C.2       10 UNK         0.5000 
     81 O         -77.1785   28.5986    5.1927 O.2       10 UNK        -0.5000 
     82 CA        -77.4589   28.5154    2.8040 C.3       10 UNK         0.1400 
     83 CB        -76.1332   28.8495    2.1025 C.3       10 UNK        -0.1800 
     84 N         -77.5945   27.0626    2.8952 N.am      10 UNK        -0.5000 
     85 C         -78.7413   26.4195    3.1498 C.2       9 UNK         0.5000 
     86 O         -79.8175   26.9942    3.3222 O.2       9 UNK        -0.5000 
     87 CA        -78.7057   24.8779    3.1799 C.3       9 UNK         0.1400 
     88 CB        -79.3119   24.3070    1.8880 C.3       9 UNK        -0.1800 
     89 N         -77.3620   24.3245    3.3485 N.am      9 UNK        -0.5000 
     90 C         -76.7050   24.2496    4.5135 C.2       8 UNK         0.5000 
     91 O         -77.1834   24.6026    5.5912 O.2       8 UNK        -0.5000 
     92 CA        -75.2714   23.6859    4.4626 C.3       8 UNK         0.1400 
     93 CB        -75.2742   22.1588    4.6250 C.3       8 UNK        -0.1800 
     94 N         -74.5677   24.0376    3.2289 N.am      8 UNK        -0.5000 
     95 C         -74.1761   25.2764    2.9042 C.2       7 UNK         0.5000 
     96 O         -74.2873   26.2459    3.6515 O.2       7 UNK        -0.5000 
     97 CA        -73.5779   25.4761    1.5023 C.3       7 UNK         0.1400 
     98 CB        -72.0639   25.2292    1.5162 C.3       7 UNK        -0.1800 
     99 N         -74.2047   24.6031    0.5111 N.am      7 UNK        -0.5000 
    100 C        -75.4150   24.8157   -0.0238 C.2       6 UNK         0.5000 
    101 O        -76.1162   25.7919    0.2376 O.2       6 UNK        -0.5000 
    102 CA       -75.9424   23.7417   -0.9938 C.3       6 UNK         0.1400 
    103 CB       -75.4660   24.0274   -2.4257 C.3       6 UNK        -0.1800 
    104 N        -75.5405   22.3867   -0.6129 N.am      6 UNK        -0.5000 
    105 C        -75.9683   21.7527    0.4876 C.2       5 UNK         0.5000 
    106 O        -76.7728   22.2350    1.2836 O.2       5 UNK        -0.5000 
    107 CA       -75.3517   20.3703    0.7722 C.3       5 UNK         0.1400 
    108 CB       -76.1365   19.2690    0.0442 C.3       5 UNK        -0.1800 
    109 N        -73.9322   20.2762    0.4135 N.am      5 UNK        -0.5000 
    110 C        -72.9614   21.0247    0.9534 C.2       4 UNK         0.5000 
    111 O        -73.1693   21.9254    1.7684 O.2       4 UNK        -0.5000 
    112 CA       -71.5282   20.7649    0.4557 C.3       4 UNK         0.1400 
    113 CB       -71.1580   21.7751   -0.6414 C.3       4 UNK        -0.1800 
    114 N        -70.5495   20.8623    1.5385 N.am      4 UNK        -0.5000 
    115 C        -70.4596   20.0124    2.5713 C.2       3 UNK         0.5000 
    116 O        -71.1551   19.0014    2.6827 O.2       3 UNK        -0.5000 
    117 CA       -69.4048   20.3219    3.6556 C.3       3 UNK         0.1400 
    118 CB       -68.1832   19.4036    3.4916 C.3       3 UNK        -0.1800 
    119 N        -68.9465   21.7154    3.6739 N.am      3 UNK        -0.5000 
    120 C        -69.6928   22.7565    4.0639 C.2       2 UNK         0.5000 
    121 O        -70.8629   22.6490    4.4395 O.2       2 UNK        -0.5000 
    122 CA       -69.0134   24.1410    4.0108 C.3       2 UNK         0.1400 
    123 CB       -68.5859   24.5051    2.5777 C.3       2 UNK        -0.1800 
    124 N        -69.9247   25.1701    4.5068 N.am      2 UNK        -0.5000 
    125 C        -70.0801   25.5018    5.7949 C.2       1 UNK         0.5000 
    126 O        -69.3231   25.1280    6.6924 O.2       1 UNK        -0.5000 
    127 H127      -71.5447   28.5088    2.3176 H         1 UNK         0.0600 
    128 H128      -71.8300   29.9155    3.3469 H         1 UNK         0.0600 
    129 H129      -73.0182   28.6153    3.2898 H         1 UNK         0.0600 
    130 H130      -72.7778   26.8487    4.6958 H         1 UNK         0.3000 
    131 H131      -70.9917   27.0884    6.8968 H         1 UNK         0.0600 
    132 H132      -71.9894   25.0199    7.7359 H         1 UNK         0.0800 
    133 H133      -72.5854   24.5886    6.1592 H         1 UNK         0.0800 
    134 H134      -72.7108   27.1360    9.0149 H         1 UNK         0.0800 
    135 H135      -74.3798   27.6262    9.0811 H         1 UNK         0.0800 
    136 H136      -74.7107   28.7571    6.2457 H         1 UNK         0.1150 
    137 H137      -72.3517   32.3262    6.2848 H         1 UNK         0.1150 
    138 H138      -71.6529   29.2770    9.2117 H         1 UNK         0.1150 
    139 H139      -69.8914   31.1575    8.5584 H         1 UNK         0.0800 
    140 H140      -70.5551   32.5798    7.7881 H         1 UNK         0.0800 
    141 H141      -69.4085   33.7773    9.4429 H         1 UNK         0.0800 
    142 H142      -69.4141   33.4079   11.1410 H         1 UNK         0.0800 
    143 H143      -71.1712   35.0250   11.5916 H         1 UNK         0.0600 
    144 H144      -70.6195   37.6840    9.8585 H         1 UNK         0.3800 
    145 H145      -69.0755   38.1389   10.5322 H         1 UNK         0.3800 
    146 H146      -72.6198   35.7938   10.1633 H         1 UNK         0.3000 
    147 H147      -72.6080   36.8095    6.8300 H         1 UNK         0.0600 
    148 H148      -73.2815   34.4966    6.3674 H         1 UNK         0.0600 
    149 H149      -74.7282   35.4456    6.6630 H         1 UNK         0.0600 
    150 H150      -74.1102   34.3651    7.9119 H         1 UNK         0.0600 
    151 H151      -74.6445   36.6794    8.8444 H         1 UNK         0.3000 
    152 H152      -73.6455   39.4750   10.7637 H         1 UNK         0.0600 
    153 H153      -75.8032   39.5351    8.5837 H         1 UNK         0.0600 
    154 H154      -75.7353   40.5781   10.0054 H         1 UNK         0.0600 
    155 H155      -74.5032   40.7075    8.7610 H         1 UNK         0.0600 
    156 H156      -76.1488   38.1589   10.6183 H         1 UNK         0.3000 
    157 H157      -75.4363   35.1747   12.2714 H         1 UNK         0.0600 
    158 H158      -76.7135   37.6275   13.5921 H         1 UNK         0.0600 
    159 H159      -75.3781   36.6930   14.2576 H         1 UNK         0.0600 
    160 H160      -76.9561   35.9452   14.0663 H         1 UNK         0.0600 
    161 H161      -77.9429   36.3593   11.8118 H         1 UNK         0.3000 
    162 H162      -78.9142   36.5582    9.4355 H         1 UNK         0.0600 
    163 H163      -77.7537   35.4867    7.4450 H         1 UNK         0.0600 
    164 H164      -78.3019   33.9205    8.0287 H         1 UNK         0.0600 
    165 H165      -79.4651   35.1574    7.5504 H         1 UNK         0.0600 
    166 H166      -79.5457   33.7518   10.0522 H         1 UNK         0.3000 
    167 H167      -81.1222   34.5854   13.1781 H         1 UNK         0.0600 
    168 H168      -82.8376   34.6693   11.4078 H         1 UNK         0.0600 
    169 H169      -82.0744   33.3415   10.5502 H         1 UNK         0.0600 
    170 H170      -82.7848   33.0714   12.1363 H         1 UNK         0.0600 
    171 H171      -80.0387   32.2858   11.6253 H         1 UNK         0.3000 
    172 H172      -77.5341   31.6581   14.0810 H         1 UNK         0.0600 
    173 H173      -78.5075   29.3511   13.9479 H         1 UNK         0.0600 
    174 H174      -79.3952   30.3995   15.0444 H         1 UNK         0.0600 
    175 H175      -80.0534   30.0409   13.4576 H         1 UNK         0.0600 
    176 H176      -78.3942   30.4793   11.5525 H         1 UNK         0.3000 
    177 H177      -77.1512   32.5196    9.5011 H         1 UNK         0.0600 
    178 H178      -75.0177   31.6295    8.5566 H         1 UNK         0.0600 
    179 H179      -74.7428   32.7129    9.9048 H         1 UNK         0.0600 
    180 H180      -74.5865   30.9795   10.1355 H         1 UNK         0.0600 
    181 H181      -78.1328   30.6604    8.8815 H         1 UNK         0.3000 
    182 H182      -77.6409   28.2171    7.9133 H         1 UNK         0.0600 
    183 H183      -78.2902   26.0170    8.9002 H         1 UNK         0.0600 
    184 H184      -76.6199   26.4203    9.2549 H         1 UNK         0.0600 
    185 H185      -77.8430   26.5942   10.5062 H         1 UNK         0.0600 
    186 H186      -79.7635   28.7521    8.1881 H         1 UNK         0.3000 
    187 H187      -82.0762   28.3168    9.7887 H         1 UNK         0.0600 
    188 H188      -83.1046   30.0945   11.1941 H         1 UNK         0.0600 
    189 H189      -82.0464   29.0717   12.1496 H         1 UNK         0.0600 
    190 H190      -81.5111   30.6739   11.6602 H         1 UNK         0.0600 
    191 H191      -82.2598   29.8231    8.1950 H         1 UNK         0.3000 
    192 H192      -81.9868   31.3905    6.8285 H         1 UNK         0.0600 
    193 H193      -81.2868   34.0071    8.2546 H         1 UNK         0.0600 
    194 H194      -82.0506   33.8960    6.6688 H         1 UNK         0.0600 
    195 H195      -82.8750   33.2850    8.0927 H         1 UNK         0.0600 
    196 H196      -79.7803   33.0399    6.3372 H         1 UNK         0.3000 
    197 H197      -78.3193   32.3747    4.8184 H         1 UNK         0.0600 
    198 H198      -76.4793   30.6497    6.5621 H         1 UNK         0.0800 
    199 H199      -77.0515   32.2233    7.0182 H         1 UNK         0.0800 
    200 H200      -74.8606   30.2728    4.4033 H         1 UNK         0.0800 
    201 H201      -73.5989   31.4500    4.1732 H         1 UNK         0.0800 
    202 H202      -78.1889   30.8737    3.2586 H         1 UNK         0.3000 
    203 H203      -78.2764   28.8921    2.1856 H         1 UNK         0.0600 
    204 H204      -75.2797   28.4824    2.6700 H         1 UNK         0.0600 
    205 H205      -76.0892   28.4074    1.1072 H         1 UNK         0.0600 
    206 H206      -76.0090   29.9265    1.9844 H         1 UNK         0.0600 
    207 H207      -76.7475   26.5213    2.8000 H         1 UNK         0.3000 
    208 H208      -79.3259   24.5525    4.0177 H         1 UNK         0.0600 
    209 H209      -80.3263   24.6762    1.7323 H         1 UNK         0.0600 
    210 H210      -79.3653   23.2187    1.9249 H         1 UNK         0.0600 
    211 H211      -78.7224   24.5837    1.0129 H         1 UNK         0.0600 
    212 H212      -76.9284   23.9280    2.5225 H         1 UNK         0.3000 
    213 H213      -74.7204   24.1108    5.3006 H         1 UNK         0.0600 
    214 H214      -75.7372   21.8686    5.5688 H         1 UNK         0.0600 
    215 H215      -74.2587   21.7611    4.6225 H         1 UNK         0.0600 
    216 H216      -75.8277   21.6700    3.8234 H         1 UNK         0.0600 
    217 H217      -74.3429   23.2761    2.5961 H         1 UNK         0.3000 
    218 H218      -73.7483   26.5147    1.2096 H         1 UNK         0.0600 
    219 H219      -71.6342   25.3483    0.5215 H         1 UNK         0.0600 
    220 H220      -71.5621   25.9406    2.1708 H         1 UNK         0.0600 
    221 H221      -71.8229   24.2266    1.8706 H         1 UNK         0.0600 
    222 H222      -73.7206   23.7447    0.2930 H         1 UNK         0.3000 
    223 H223      -77.0335   23.7893   -0.9800 H         1 UNK         0.0600 
    224 H224      -75.8950   23.3174   -3.1331 H         1 UNK         0.0600 
    225 H225      -75.7682   25.0256   -2.7453 H         1 UNK         0.0600 
    226 H226      -74.3799   23.9707   -2.5089 H         1 UNK         0.0600 
    227 H227      -74.8787   21.9178   -1.2136 H         1 UNK         0.3000 
    228 H228      -75.4325   20.1909    1.8462 H         1 UNK         0.0600 
    229 H229      -75.7689   18.2786    0.3137 H         1 UNK         0.0600 
    230 H230      -77.1943   19.3040    0.3085 H         1 UNK         0.0600 
    231 H231      -76.0652   19.3712   -1.0393 H         1 UNK         0.0600 
    232 H232      -73.6864   19.5661   -0.2613 H         1 UNK         0.3000 
    233 H233      -71.4745   19.7577    0.0371 H         1 UNK         0.0600 
    234 H234      -71.1715   22.7998   -0.2682 H         1 UNK         0.0600 
    235 H235      -70.1626   21.5773   -1.0395 H         1 UNK         0.0600 
    236 H236      -71.8568   21.7207   -1.4772 H         1 UNK         0.0600 
    237 H237      -69.9560   21.6770    1.5416 H         1 UNK         0.3000 
    238 H238      -69.8645   20.1047    4.6221 H         1 UNK         0.0600 
    239 H239      -68.4774   18.3533    3.5082 H         1 UNK         0.0600 
    240 H240      -67.6678   19.5848    2.5475 H         1 UNK         0.0600 
    241 H241      -67.4669   19.5504    4.3002 H         1 UNK         0.0600 
    242 H242      -67.9940   21.8763    3.3795 H         1 UNK         0.3000 
    243 H243      -68.1218   24.1086    4.6403 H         1 UNK         0.0600 
    244 H244      -68.2022   25.5245    2.5284 H         1 UNK         0.0600 
    245 H245      -69.4098   24.4243    1.8699 H         1 UNK         0.0600 
    246 H246      -67.7902   23.8485    2.2249 H         1 UNK         0.0600 
    247 H247      -70.6213   25.5013    3.8583 H         1 UNK         0.3000 
@<TRIPOS>BOND
     1    1    2 1    
     2    1  127 1    
     3    1  128 1    
     4    1  129 1    
     5    2    3 2    
     6    2    4 am   BACKBONE|DICT|INTERRES
     7    4    5 1    
     8    4  130 1    
     9    5    6 1    
    10    5  125 1    
    11    5  131 1    
    12    6    7 1    
    13    6  132 1    
    14    6  133 1    
    15    7    8 1    
    16    8    9 1    
    17    8  134 1    
    18    8  135 1    
    19    9   10 ar   
    20    9   14 ar   
    21   10   11 ar   
    22   10  136 1    
    23   11   12 ar   
    24   11   78 1    
    25   12   13 ar   
    26   12  137 1    
    27   13   14 ar   
    28   13   15 1    
    29   14  138 1    
    30   15   16 1    
    31   15  139 1    
    32   15  140 1    
    33   16   17 1    
    34   17   18 1    
    35   17  141 1    
    36   17  142 1    
    37   18   19 1    
    38   18   22 1    
    39   18  143 1    
    40   19   20 am   BACKBONE|DICT|INTERRES
    41   19   21 2    
    42   20  144 1    
    43   20  145 1    
    44   22   23 am   BACKBONE|DICT|INTERRES
    45   22  146 1    
    46   23   24 2    
    47   23   25 1    
    48   25   26 1    
    49   25   27 1    
    50   25  147 1    
    51   26  148 1    
    52   26  149 1    
    53   26  150 1    
    54   27   28 am   BACKBONE|DICT|INTERRES
    55   27  151 1    
    56   28   29 2    
    57   28   30 1    
    58   30   31 1    
    59   30   32 1    
    60   30  152 1    
    61   31  153 1    
    62   31  154 1    
    63   31  155 1    
    64   32   33 am   BACKBONE|DICT|INTERRES
    65   32  156 1    
    66   33   34 2    
    67   33   35 1    
    68   35   36 1    
    69   35   37 1    
    70   35  157 1    
    71   36  158 1    
    72   36  159 1    
    73   36  160 1    
    74   37   38 am   BACKBONE|DICT|INTERRES
    75   37  161 1    
    76   38   39 2    
    77   38   40 1    
    78   40   41 1    
    79   40   42 1    
    80   40  162 1    
    81   41  163 1    
    82   41  164 1    
    83   41  165 1    
    84   42   43 am   BACKBONE|DICT|INTERRES
    85   42  166 1    
    86   43   44 2    
    87   43   45 1    
    88   45   46 1    
    89   45   47 1    
    90   45  167 1    
    91   46  168 1    
    92   46  169 1    
    93   46  170 1    
    94   47   48 am   BACKBONE|DICT|INTERRES
    95   47  171 1    
    96   48   49 2    
    97   48   50 1    
    98   50   51 1    
    99   50   52 1    
   100   50  172 1    
   101   51  173 1    
   102   51  174 1    
   103   51  175 1    
   104   52   53 am   BACKBONE|DICT|INTERRES
   105   52  176 1    
   106   53   54 2    
   107   53   55 1    
   108   55   56 1    
   109   55   57 1    
   110   55  177 1    
   111   56  178 1    
   112   56  179 1    
   113   56  180 1    
   114   57   58 am   BACKBONE|DICT|INTERRES
   115   57  181 1    
   116   58   59 2    
   117   58   60 1    
   118   60   61 1    
   119   60   62 1    
   120   60  182 1    
   121   61  183 1    
   122   61  184 1    
   123   61  185 1    
   124   62   63 am   BACKBONE|DICT|INTERRES
   125   62  186 1    
   126   63   64 2    
   127   63   65 1    
   128   65   66 1    
   129   65   67 1    
   130   65  187 1    
   131   66  188 1    
   132   66  189 1    
   133   66  190 1    
   134   67   68 am   BACKBONE|DICT|INTERRES
   135   67  191 1    
   136   68   69 2    
   137   68   70 1    
   138   70   71 1    
   139   70   72 1    
   140   70  192 1    
   141   71  193 1    
   142   71  194 1    
   143   71  195 1    
   144   72   73 am   BACKBONE|DICT|INTERRES
   145   72  196 1    
   146   73   74 2    
   147   73   75 1    
   148   75   76 1    
   149   75   79 1    
   150   75  197 1    
   151   76   77 1    
   152   76  198 1    
   153   76  199 1    
   154   77   78 1    
   155   78  200 1    
   156   78  201 1    
   157   79   80 am   BACKBONE|DICT|INTERRES
   158   79  202 1    
   159   80   81 2    
   160   80   82 1    
   161   82   83 1    
   162   82   84 1    
   163   82  203 1    
   164   83  204 1    
   165   83  205 1    
   166   83  206 1    
   167   84   85 am   BACKBONE|DICT|INTERRES
   168   84  207 1    
   169   85   86 2    
   170   85   87 1    
   171   87   88 1    
   172   87   89 1    
   173   87  208 1    
   174   88  209 1    
   175   88  210 1    
   176   88  211 1    
   177   89   90 am   BACKBONE|DICT|INTERRES
   178   89  212 1    
   179   90   91 2    
   180   90   92 1    
   181   92   93 1    
   182   92   94 1    
   183   92  213 1    
   184   93  214 1    
   185   93  215 1    
   186   93  216 1    
   187   94   95 am   BACKBONE|DICT|INTERRES
   188   94  217 1    
   189   95   96 2    
   190   95   97 1    
   191   97   98 1    
   192   97   99 1    
   193   97  218 1    
   194   98  219 1    
   195   98  220 1    
   196   98  221 1    
   197   99  100 am   BACKBONE|DICT|INTERRES
   198   99  222 1    
   199  100  101 2    
   200  100  102 1    
   201  102  103 1    
   202  102  104 1    
   203  102  223 1    
   204  103  224 1    
   205  103  225 1    
   206  103  226 1    
   207  104  105 am   BACKBONE|DICT|INTERRES
   208  104  227 1    
   209  105  106 2    
   210  105  107 1    
   211  107  108 1    
   212  107  109 1    
   213  107  228 1    
   214  108  229 1    
   215  108  230 1    
   216  108  231 1    
   217  109  110 am   BACKBONE|DICT|INTERRES
   218  109  232 1    
   219  110  111 2    
   220  110  112 1    
   221  112  113 1    
   222  112  114 1    
   223  112  233 1    
   224  113  234 1    
   225  113  235 1    
   226  113  236 1    
   227  114  115 am   BACKBONE|DICT|INTERRES
   228  114  237 1    
   229  115  116 2    
   230  115  117 1    
   231  117  118 1    
   232  117  119 1    
   233  117  238 1    
   234  118  239 1    
   235  118  240 1    
   236  118  241 1    
   237  119  120 am   BACKBONE|DICT|INTERRES
   238  119  242 1    
   239  120  121 2    
   240  120  122 1    
   241  122  123 1    
   242  122  124 1    
   243  122  243 1    
   244  123  244 1    
   245  123  245 1    
   246  123  246 1    
   247  124  125 am   BACKBONE|DICT|INTERRES
   248  124  247 1    
   249  125  126 2    
@<TRIPOS>SUBSTRUCTURE
     1 UNK         1 GROUP             0       ****    0 ROOT    
