@<TRIPOS>MOLECULE
3R0
97   99    1
SMALL
USER_CHARGES


@<TRIPOS>ATOM
      1 CA         17.7845   53.8005    6.5378 C.3       0 UNK        -0.2006 
      2 C          17.9868   53.5029    8.0151 C.2       0 UNK         0.4864 
      3 O          18.6786   54.2525    8.7032 O.2       0 UNK        -0.5092 
      4 N          17.3799   52.4211    8.5180 N.am      1 UNK        -0.4825 
      5 CA         17.4725   51.9455    9.9060 C.3       1 UNK         0.0812 
      6 C6         17.1739   50.4278    9.9954 C.3       8 UNK        -0.0932 
      7 S7         18.4992   49.4637    9.1930 S.3       8 UNK        -0.2545 
      8 C8         19.2724   48.6142   10.6086 C.3       8 UNK         0.0228 
      9 C9         19.7787   49.5719   11.6815 C.ar      8 UNK        -0.0842 
     10 C10        20.9195   50.3515   11.4610 C.ar      8 UNK        -0.0874 
     11 C11        21.4090   51.1898   12.4690 C.ar      8 UNK        -0.0867 
     12 C12        20.7585   51.2322   13.7053 C.ar      8 UNK        -0.1042 
     13 C13        19.5932   50.4954   13.9211 C.ar      8 UNK        -0.0824 
     14 C14        19.1150   49.6581   12.9097 C.ar      8 UNK        -0.1194 
     15 C15        18.8447   50.6024   15.2410 C.3       8 UNK         0.0180 
     16 S16        17.4769   51.8006   15.1249 S.3       8 UNK        -0.2273 
     17 C17        18.2407   53.3662   15.6828 C.3       8 UNK        -0.0981 
     18 CA         18.9027   54.2092   14.5518 C.3       3 UNK         0.0747 
     19 N          18.0768   54.3620   13.3497 N.am      3 UNK        -0.4794 
     20 C          16.8904   54.9767   13.2457 C.2       2 UNK         0.5067 
     21 O          16.2746   55.4661   14.1930 O.2       2 UNK        -0.4802 
     22 CA         16.2935   55.0735   11.8287 C.3       2 UNK         0.0370 
     23 CB         16.5071   56.4863   11.2614 C.3       2 UNK        -0.1774 
     24 N          16.8777   54.1020   10.8999 N.am      2 UNK        -0.4750 
     25 C          16.6018   52.7921   10.8625 C.2       1 UNK         0.5001 
     26 O          15.7141   52.2659   11.5356 O.2       1 UNK        -0.4889 
     27 C          19.4488   55.5740   15.0355 C.2       3 UNK         0.4972 
     28 O          19.4740   56.5304   14.2577 O.2       3 UNK        -0.4802 
     29 N          19.9269   55.6406   16.2901 N.am      4 UNK        -0.4926 
     30 CA         20.4105   56.8442   16.9910 C.3       4 UNK         0.0426 
     31 CB         19.2163   57.7520   17.3534 C.3       4 UNK        -0.1835 
     32 C          21.5249   57.6143   16.2467 C.2       4 UNK         0.5138 
     33 O          21.5707   58.8435   16.3097 O.2       4 UNK        -0.5194 
     34 N          22.3690   56.8699   15.5166 N.am      5 UNK        -0.4222 
     35 CA         23.4360   57.3202   14.6101 C.3       5 UNK         0.0221 
     36 CB         24.4964   58.1584   15.3546 C.3       5 UNK        -0.2034 
     37 C          22.9522   58.0264   13.3248 C.2       5 UNK         0.4987 
     38 O          23.7838   58.3066   12.4600 O.2       5 UNK        -0.5478 
     39 N          21.6383   58.2515   13.1631 N.am      6 UNK        -0.4365 
     40 CA         21.0291   58.8085   11.9471 C.3       6 UNK         0.0273 
     41 CB         19.5861   59.2481   12.2457 C.3       6 UNK        -0.1956 
     42 C          21.0672   57.8267   10.7614 C.2       6 UNK         0.4962 
     43 O          20.9809   58.2577    9.6110 O.2       6 UNK        -0.5385 
     44 N          21.2290   56.5356   11.0693 N.am      7 UNK        -0.4054 
     45 CA         21.5361   55.4499   10.1328 C.3       7 UNK         0.0701 
     46 C          22.9458   55.5246    9.4754 C.2       7 UNK         0.5602 
     47 N          23.8602   56.3729    9.9339 N.am      7 UNK        -0.7339 
     48 O          23.2117   54.8011    8.5192 O.2       7 UNK        -0.5126 
     49 C49        21.2756   54.0717   10.7977 C.3       8 UNK        -0.0906 
     50 S50        22.2376   53.8284   12.3348 S.3       8 UNK        -0.2590 
     51 C51        22.6403   52.0537   12.2364 C.3       8 UNK         0.0201 
     52 H52        18.7458   53.8160    6.0250 H         1 UNK         0.0901 
     53 H53        17.3157   54.7761    6.4133 H         1 UNK         0.0901 
     54 H54        17.1534   53.0552    6.0541 H         1 UNK         0.0901 
     55 H55        16.8106   51.8515    7.9081 H         1 UNK         0.3005 
     56 H56        18.5008   52.0898   10.2479 H         1 UNK         0.1258 
     57 H57        16.2225   50.1909    9.5161 H         1 UNK         0.0713 
     58 H58        17.0745   50.1016   11.0315 H         1 UNK         0.0713 
     59 H59        20.1063   48.0127   10.2440 H         1 UNK         0.0869 
     60 H60        18.5555   47.9078   11.0303 H         1 UNK         0.0869 
     61 H61        21.4251   50.2991   10.5062 H         1 UNK         0.1451 
     62 H62        21.1493   51.8634   14.4913 H         1 UNK         0.1348 
     63 H63        18.2217   49.0731   13.0820 H         1 UNK         0.1248 
     64 H64        18.4312   49.6272   15.5023 H         1 UNK         0.0802 
     65 H65        19.5212   50.8690   16.0541 H         1 UNK         0.0802 
     66 H66        18.9613   53.1294   16.4665 H         1 UNK         0.0831 
     67 H67        17.4549   53.9484   16.1677 H         1 UNK         0.0831 
     68 H68        19.7860   53.6733   14.2140 H         1 UNK         0.1266 
     69 H69        18.4848   54.0094   12.4985 H         1 UNK         0.2858 
     70 H70        15.2200   54.8880   11.9033 H         1 UNK         0.0493 
     71 H71        17.5670   56.7191   11.1486 H         1 UNK         0.0858 
     72 H72        16.0331   56.5991   10.2864 H         1 UNK         0.0858 
     73 H73        16.0764   57.2419   11.9200 H         1 UNK         0.0858 
     74 H74        17.5865   54.4423   10.2541 H         1 UNK         0.2998 
     75 H75        19.9093   54.7995   16.8503 H         1 UNK         0.2942 
     76 H76        20.8575   56.4984   17.9242 H         1 UNK         0.0588 
     77 H77        19.5309   58.5862   17.9818 H         1 UNK         0.0836 
     78 H78        18.4538   57.2038   17.9066 H         1 UNK         0.0836 
     79 H79        18.7465   58.1733   16.4638 H         1 UNK         0.0836 
     80 H80        22.2182   55.8707   15.5372 H         1 UNK         0.3003 
     81 H81        23.9281   56.4076   14.2690 H         1 UNK         0.0959 
     82 H82        24.1055   59.1261   15.6697 H         1 UNK         0.0808 
     83 H83        24.8646   57.6392   16.2394 H         1 UNK         0.0808 
     84 H84        25.3573   58.3543   14.7141 H         1 UNK         0.0808 
     85 H85        20.9968   57.9466   13.8873 H         1 UNK         0.3181 
     86 H86        21.6015   59.6925   11.6578 H         1 UNK         0.0819 
     87 H87        18.9486   58.4037   12.5078 H         1 UNK         0.0823 
     88 H88        19.5503   59.9635   13.0674 H         1 UNK         0.0823 
     89 H89        19.1399   59.7315   11.3756 H         1 UNK         0.0823 
     90 H90        21.2799   56.2873   12.0458 H         1 UNK         0.3159 
     91 H91        20.8383   55.5519    9.3012 H         1 UNK         0.0870 
     92 H92        24.7632   56.4045    9.4883 H         1 UNK         0.3462 
     93 H93        23.6693   56.9787   10.7213 H         1 UNK         0.3462 
     94 H94        20.2182   53.9783   11.0467 H         1 UNK         0.0763 
     95 H95        21.4802   53.2631   10.0933 H         1 UNK         0.0763 
     96 H96        23.1038   51.8356   11.2730 H         1 UNK         0.0881 
     97 H97        23.3876   51.8183   12.9955 H         1 UNK         0.0881 
@<TRIPOS>BOND
     1    1    2 1    
     2    1   52 1    
     3    1   53 1    
     4    1   54 1    
     5    2    3 2    
     6    2    4 am   BACKBONE|DICT|INTERRES
     7    4    5 1    
     8    4   55 1    
     9    5    6 1    
    10    5   25 1    
    11    5   56 1    
    12    6    7 1    
    13    6   57 1    
    14    6   58 1    
    15    7    8 1    
    16    8    9 1    
    17    8   59 1    
    18    8   60 1    
    19    9   10 ar   
    20    9   14 ar   
    21   10   11 ar   
    22   10   61 1    
    23   11   12 ar   
    24   11   51 1    
    25   12   13 ar   
    26   12   62 1    
    27   13   14 ar   
    28   13   15 1    
    29   14   63 1    
    30   15   16 1    
    31   15   64 1    
    32   15   65 1    
    33   16   17 1    
    34   17   18 1    
    35   17   66 1    
    36   17   67 1    
    37   18   19 1    
    38   18   27 1    
    39   18   68 1    
    40   19   20 am   BACKBONE|DICT|INTERRES
    41   19   69 1    
    42   20   21 2    
    43   20   22 1    
    44   22   23 1    
    45   22   24 1    
    46   22   70 1    
    47   23   71 1    
    48   23   72 1    
    49   23   73 1    
    50   24   25 am   BACKBONE|DICT|INTERRES
    51   24   74 1    
    52   25   26 2    
    53   27   28 2    
    54   27   29 am   BACKBONE|DICT|INTERRES
    55   29   30 1    
    56   29   75 1    
    57   30   31 1    
    58   30   32 1    
    59   30   76 1    
    60   31   77 1    
    61   31   78 1    
    62   31   79 1    
    63   32   33 2    
    64   32   34 am   BACKBONE|DICT|INTERRES
    65   34   35 1    
    66   34   80 1    
    67   35   36 1    
    68   35   37 1    
    69   35   81 1    
    70   36   82 1    
    71   36   83 1    
    72   36   84 1    
    73   37   38 2    
    74   37   39 am   BACKBONE|DICT|INTERRES
    75   39   40 1    
    76   39   85 1    
    77   40   41 1    
    78   40   42 1    
    79   40   86 1    
    80   41   87 1    
    81   41   88 1    
    82   41   89 1    
    83   42   43 2    
    84   42   44 am   BACKBONE|DICT|INTERRES
    85   44   45 1    
    86   44   90 1    
    87   45   46 1    
    88   45   49 1    
    89   45   91 1    
    90   46   47 am   BACKBONE|DICT|INTERRES
    91   46   48 2    
    92   47   92 1    
    93   47   93 1    
    94   49   50 1    
    95   49   94 1    
    96   49   95 1    
    97   50   51 1    
    98   51   96 1    
    99   51   97 1    
@<TRIPOS>SUBSTRUCTURE
     1 UNK         1 GROUP             0       ****    0 ROOT    
