@<TRIPOS>MOLECULE
3R0
97   99    1
SMALL
USER_CHARGES


@<TRIPOS>ATOM
      1 CA         20.3242   54.0354   12.4646 C.3       0 UNK        -0.2006 
      2 C          19.8880   52.7415   13.1248 C.2       0 UNK         0.4864 
      3 O          20.2592   52.4847   14.2701 O.2       0 UNK        -0.5092 
      4 N          19.0829   51.9309   12.4273 N.am      1 UNK        -0.4825 
      5 CA         18.5766   50.6311   12.8895 C.3       1 UNK         0.0812 
      6 C6         18.1922   49.7021   11.7080 C.3       8 UNK        -0.0932 
      7 S7         19.5353   49.5202   10.4826 S.3       8 UNK        -0.2545 
      8 C8         18.7749   50.2184    8.9798 C.3       8 UNK         0.0228 
      9 C9         18.6196   51.7337    9.0410 C.ar      8 UNK        -0.0842 
     10 C10        19.6545   52.5680    8.6043 C.ar      8 UNK        -0.0874 
     11 C11        19.4861   53.9567    8.5869 C.ar      8 UNK        -0.0867 
     12 C12        18.2877   54.5120    9.0478 C.ar      8 UNK        -0.1042 
     13 C13        17.2478   53.6897    9.4901 C.ar      8 UNK        -0.0824 
     14 C14        17.4173   52.3025    9.4738 C.ar      8 UNK        -0.1194 
     15 C15        15.9140   54.2904    9.9150 C.3       8 UNK         0.0180 
     16 S16        15.5366   53.9890   11.6697 S.3       8 UNK        -0.2273 
     17 C17        16.5819   55.2361   12.4898 C.3       8 UNK        -0.0981 
     18 CA         16.4265   55.1950   14.0320 C.3       3 UNK         0.0747 
     19 N          16.7835   53.8780   14.5709 N.am      3 UNK        -0.4794 
     20 C          16.3141   53.3365   15.7026 C.2       2 UNK         0.5067 
     21 O          15.5091   53.9016   16.4425 O.2       2 UNK        -0.4802 
     22 CA         16.8655   51.9480   16.0943 C.3       2 UNK         0.0370 
     23 CB         15.7526   50.9772   16.5406 C.3       2 UNK        -0.1774 
     24 N          17.7438   51.3629   15.0678 N.am      2 UNK        -0.4750 
     25 C          17.4071   50.8476   13.8750 C.2       1 UNK         0.5001 
     26 O          16.2483   50.6320   13.5189 O.2       1 UNK        -0.4889 
     27 C          17.2372   56.3314   14.6924 C.2       3 UNK         0.4972 
     28 O          16.8758   57.4959   14.5290 O.2       3 UNK        -0.4802 
     29 N          18.3240   55.9804   15.4019 N.am      4 UNK        -0.4926 
     30 CA         19.2511   56.8515   16.1449 C.3       4 UNK         0.0426 
     31 CB         18.5130   57.6330   17.2519 C.3       4 UNK        -0.1835 
     32 C          20.1309   57.7758   15.2746 C.2       4 UNK         0.5138 
     33 O          20.8773   58.5889   15.8230 O.2       4 UNK        -0.5194 
     34 N          20.0568   57.6254   13.9474 N.am      5 UNK        -0.4222 
     35 CA         20.9222   58.2854   12.9711 C.3       5 UNK         0.0221 
     36 CB         20.2413   58.2188   11.5945 C.3       5 UNK        -0.2034 
     37 C          22.3103   57.6239   12.9269 C.2       5 UNK         0.4987 
     38 O          22.4419   56.4409   13.2518 O.2       5 UNK        -0.5478 
     39 N          23.3241   58.3773   12.4840 N.am      6 UNK        -0.4365 
     40 CA         24.7206   57.9363   12.3719 C.3       6 UNK         0.0273 
     41 CB         25.6363   59.1756   12.3901 C.3       6 UNK        -0.1956 
     42 C          24.9675   57.0338   11.1428 C.2       6 UNK         0.4962 
     43 O          25.8424   57.3288   10.3256 O.2       6 UNK        -0.5385 
     44 N          24.1815   55.9591   11.0261 N.am      7 UNK        -0.4054 
     45 CA         24.2267   54.9870    9.9199 C.3       7 UNK         0.0701 
     46 C          25.3205   53.8941   10.0747 C.2       7 UNK         0.5602 
     47 N          26.0186   53.8011   11.1998 N.am      7 UNK        -0.7339 
     48 O          25.5493   53.1203    9.1486 O.2       7 UNK        -0.5126 
     49 C49        22.8335   54.3583    9.6488 C.3       8 UNK        -0.0906 
     50 S50        21.5717   55.6342    9.3153 S.3       8 UNK        -0.2590 
     51 C51        20.5667   54.8623    8.0132 C.3       8 UNK         0.0201 
     52 H52        19.9389   54.8892   13.0173 H         1 UNK         0.0901 
     53 H53        19.9795   54.1058   11.4342 H         1 UNK         0.0901 
     54 H54        21.4105   54.1011   12.4699 H         1 UNK         0.0901 
     55 H55        18.8089   52.1845   11.4859 H         1 UNK         0.3005 
     56 H56        19.3749   50.1294   13.4422 H         1 UNK         0.1258 
     57 H57        17.2902   50.0540   11.2081 H         1 UNK         0.0713 
     58 H58        17.9494   48.7066   12.0838 H         1 UNK         0.0713 
     59 H59        17.8083   49.7429    8.8056 H         1 UNK         0.0869 
     60 H60        19.3943   49.9510    8.1223 H         1 UNK         0.0869 
     61 H61        20.5782   52.1338    8.2461 H         1 UNK         0.1451 
     62 H62        18.1563   55.5856    9.0313 H         1 UNK         0.1348 
     63 H63        16.5981   51.6685    9.7837 H         1 UNK         0.1248 
     64 H64        15.8813   55.3624    9.7149 H         1 UNK         0.0802 
     65 H65        15.1230   53.8457    9.3097 H         1 UNK         0.0802 
     66 H66        16.3008   56.2175   12.1020 H         1 UNK         0.0831 
     67 H67        17.6179   55.0720   12.1923 H         1 UNK         0.0831 
     68 H68        15.3778   55.3898   14.2703 H         1 UNK         0.1266 
     69 H69        17.4040   53.3170   14.0077 H         1 UNK         0.2858 
     70 H70        17.5082   52.1196   16.9588 H         1 UNK         0.0493 
     71 H71        14.9897   50.8470   15.7729 H         1 UNK         0.0858 
     72 H72        15.2464   51.3518   17.4310 H         1 UNK         0.0858 
     73 H73        16.1550   49.9950   16.7875 H         1 UNK         0.0858 
     74 H74        18.7333   51.5576   15.1980 H         1 UNK         0.2998 
     75 H75        18.5277   54.9920   15.4603 H         1 UNK         0.2942 
     76 H76        19.9480   56.1738   16.6403 H         1 UNK         0.0588 
     77 H77        17.9194   56.9686   17.8796 H         1 UNK         0.0836 
     78 H78        17.8469   58.3916   16.8404 H         1 UNK         0.0836 
     79 H79        19.2191   58.1467   17.9054 H         1 UNK         0.0836 
     80 H80        19.4266   56.9237   13.5952 H         1 UNK         0.3003 
     81 H81        21.0430   59.3324   13.2583 H         1 UNK         0.0959 
     82 H82        20.0328   57.1904   11.2983 H         1 UNK         0.0808 
     83 H83        19.2960   58.7621   11.5948 H         1 UNK         0.0808 
     84 H84        20.8680   58.6609   10.8187 H         1 UNK         0.0808 
     85 H85        23.1304   59.3230   12.1856 H         1 UNK         0.3181 
     86 H86        24.9641   57.3386   13.2531 H         1 UNK         0.0819 
     87 H87        25.4895   59.7653   13.2951 H         1 UNK         0.0823 
     88 H88        26.6878   58.8859   12.3642 H         1 UNK         0.0823 
     89 H89        25.4559   59.8245   11.5321 H         1 UNK         0.0823 
     90 H90        23.4751   55.8135   11.7424 H         1 UNK         0.3159 
     91 H91        24.5067   55.5327    9.0171 H         1 UNK         0.0870 
     92 H92        25.8432   54.4317   11.9651 H         1 UNK         0.3462 
     93 H93        26.7287   53.0907   11.2825 H         1 UNK         0.3462 
     94 H94        22.5107   53.7485   10.4923 H         1 UNK         0.0763 
     95 H95        22.8873   53.6822    8.7938 H         1 UNK         0.0763 
     96 H96        21.2027   54.3196    7.3124 H         1 UNK         0.0881 
     97 H97        20.0949   55.6539    7.4291 H         1 UNK         0.0881 
@<TRIPOS>BOND
     1    1    2 1    
     2    1   52 1    
     3    1   53 1    
     4    1   54 1    
     5    2    3 2    
     6    2    4 am   BACKBONE|DICT|INTERRES
     7    4    5 1    
     8    4   55 1    
     9    5    6 1    
    10    5   25 1    
    11    5   56 1    
    12    6    7 1    
    13    6   57 1    
    14    6   58 1    
    15    7    8 1    
    16    8    9 1    
    17    8   59 1    
    18    8   60 1    
    19    9   10 ar   
    20    9   14 ar   
    21   10   11 ar   
    22   10   61 1    
    23   11   12 ar   
    24   11   51 1    
    25   12   13 ar   
    26   12   62 1    
    27   13   14 ar   
    28   13   15 1    
    29   14   63 1    
    30   15   16 1    
    31   15   64 1    
    32   15   65 1    
    33   16   17 1    
    34   17   18 1    
    35   17   66 1    
    36   17   67 1    
    37   18   19 1    
    38   18   27 1    
    39   18   68 1    
    40   19   20 am   BACKBONE|DICT|INTERRES
    41   19   69 1    
    42   20   21 2    
    43   20   22 1    
    44   22   23 1    
    45   22   24 1    
    46   22   70 1    
    47   23   71 1    
    48   23   72 1    
    49   23   73 1    
    50   24   25 am   BACKBONE|DICT|INTERRES
    51   24   74 1    
    52   25   26 2    
    53   27   28 2    
    54   27   29 am   BACKBONE|DICT|INTERRES
    55   29   30 1    
    56   29   75 1    
    57   30   31 1    
    58   30   32 1    
    59   30   76 1    
    60   31   77 1    
    61   31   78 1    
    62   31   79 1    
    63   32   33 2    
    64   32   34 am   BACKBONE|DICT|INTERRES
    65   34   35 1    
    66   34   80 1    
    67   35   36 1    
    68   35   37 1    
    69   35   81 1    
    70   36   82 1    
    71   36   83 1    
    72   36   84 1    
    73   37   38 2    
    74   37   39 am   BACKBONE|DICT|INTERRES
    75   39   40 1    
    76   39   85 1    
    77   40   41 1    
    78   40   42 1    
    79   40   86 1    
    80   41   87 1    
    81   41   88 1    
    82   41   89 1    
    83   42   43 2    
    84   42   44 am   BACKBONE|DICT|INTERRES
    85   44   45 1    
    86   44   90 1    
    87   45   46 1    
    88   45   49 1    
    89   45   91 1    
    90   46   47 am   BACKBONE|DICT|INTERRES
    91   46   48 2    
    92   47   92 1    
    93   47   93 1    
    94   49   50 1    
    95   49   94 1    
    96   49   95 1    
    97   50   51 1    
    98   51   96 1    
    99   51   97 1    
@<TRIPOS>SUBSTRUCTURE
     1 UNK         1 GROUP             0       ****    0 ROOT    
