@<TRIPOS>MOLECULE
3R0
97   99    1
SMALL
USER_CHARGES


@<TRIPOS>ATOM
      1 CA         16.3836   53.2462    6.6917 C.3       0 UNK        -0.2006 
      2 C          16.2406   52.8051    8.1407 C.2       0 UNK         0.4864 
      3 O          15.1327   52.8295    8.6770 O.2       0 UNK        -0.5092 
      4 N          17.3560   52.4075    8.7686 N.am      1 UNK        -0.4825 
      5 CA         17.4608   51.9449   10.1616 C.3       1 UNK         0.0812 
      6 C6         16.7767   50.5720   10.4213 C.3       8 UNK        -0.0932 
      7 S7         17.5635   49.2419    9.4392 S.3       8 UNK        -0.2545 
      8 C8         18.6358   48.3929   10.6556 C.3       8 UNK         0.0228 
      9 C9         19.4758   49.3672   11.4712 C.ar      8 UNK        -0.0842 
     10 C10        20.4517   50.1538   10.8525 C.ar      8 UNK        -0.0874 
     11 C11        21.1008   51.1653   11.5677 C.ar      8 UNK        -0.0867 
     12 C12        20.8312   51.3325   12.9295 C.ar      8 UNK        -0.1042 
     13 C13        19.8942   50.5153   13.5686 C.ar      8 UNK        -0.0824 
     14 C14        19.2213   49.5353   12.8346 C.ar      8 UNK        -0.1194 
     15 C15        19.5646   50.7098   15.0394 C.3       8 UNK         0.0180 
     16 S16        18.0044   51.6294   15.2258 S.3       8 UNK        -0.2273 
     17 C17        18.5571   53.1624   16.0398 C.3       8 UNK        -0.0981 
     18 CA         19.1606   54.2062   15.0681 C.3       3 UNK         0.0747 
     19 N          18.2726   54.5189   13.9396 N.am      3 UNK        -0.4794 
     20 C          18.5646   55.3363   12.9193 C.2       2 UNK         0.5067 
     21 O          19.6151   55.9767   12.8280 O.2       2 UNK        -0.4802 
     22 CA         17.5132   55.4240   11.8023 C.3       2 UNK         0.0370 
     23 CB         17.6750   56.6977   10.9529 C.3       2 UNK        -0.1774 
     24 N          17.6205   54.2554   10.9321 N.am      2 UNK        -0.4750 
     25 C          17.0849   53.0496   11.1723 C.2       1 UNK         0.5001 
     26 O          16.3425   52.8106   12.1266 O.2       1 UNK        -0.4889 
     27 C          19.5978   55.4540   15.8577 C.2       3 UNK         0.4972 
     28 O          20.7626   55.5472   16.2421 O.2       3 UNK        -0.4802 
     29 N          18.6736   56.4094   16.0410 N.am      4 UNK        -0.4926 
     30 CA         18.9024   57.6816   16.7377 C.3       4 UNK         0.0426 
     31 CB         17.5615   58.4130   16.9060 C.3       4 UNK        -0.1835 
     32 C          19.9294   58.5981   16.0451 C.2       4 UNK         0.5138 
     33 O          20.5852   59.3898   16.7228 O.2       4 UNK        -0.5194 
     34 N          20.0599   58.4585   14.7200 N.am      5 UNK        -0.4222 
     35 CA         21.0456   59.1548   13.8921 C.3       5 UNK         0.0221 
     36 CB         20.3539   59.5987   12.5901 C.3       5 UNK        -0.2034 
     37 C          22.2641   58.2701   13.5707 C.2       5 UNK         0.4987 
     38 O          23.1505   58.7263   12.8474 O.2       5 UNK        -0.5478 
     39 N          22.2664   57.0106   14.0405 N.am      6 UNK        -0.4365 
     40 CA         23.2094   55.9321   13.7083 C.3       6 UNK         0.0273 
     41 CB         24.5793   56.1940   14.3680 C.3       6 UNK        -0.1956 
     42 C          23.3187   55.6666   12.1902 C.2       6 UNK         0.4962 
     43 O          24.3930   55.3015   11.7087 O.2       6 UNK        -0.5385 
     44 N          22.2112   55.8882   11.4673 N.am      7 UNK        -0.4054 
     45 CA         22.1137   55.9118    9.9974 C.3       7 UNK         0.0701 
     46 C          22.9532   57.0270    9.3018 C.2       7 UNK         0.5602 
     47 N          23.4168   58.0554   10.0021 N.am      7 UNK        -0.7339 
     48 O          23.1584   56.9867    8.0911 O.2       7 UNK        -0.5126 
     49 C49        22.3068   54.5107    9.3502 C.3       8 UNK        -0.0906 
     50 S50        21.0327   53.3372    9.9103 S.3       8 UNK        -0.2590 
     51 C51        22.0241   52.1309   10.8452 C.3       8 UNK         0.0201 
     52 H52        16.0575   54.2800    6.5805 H         1 UNK         0.0901 
     53 H53        15.7647   52.6222    6.0475 H         1 UNK         0.0901 
     54 H54        17.4137   53.1762    6.3425 H         1 UNK         0.0901 
     55 H55        18.2282   52.4104    8.2576 H         1 UNK         0.3005 
     56 H56        18.5239   51.8055   10.3353 H         1 UNK         0.1258 
     57 H57        15.7166   50.6157   10.1685 H         1 UNK         0.0713 
     58 H58        16.8198   50.3028   11.4777 H         1 UNK         0.0713 
     59 H59        19.2941   47.7004   10.1293 H         1 UNK         0.0869 
     60 H60        18.0098   47.7824   11.3083 H         1 UNK         0.0869 
     61 H61        20.6374   50.0410    9.7927 H         1 UNK         0.1451 
     62 H62        21.3302   52.1155   13.4828 H         1 UNK         0.1348 
     63 H63        18.4655   48.9332   13.3208 H         1 UNK         0.1248 
     64 H64        19.4620   49.7375   15.5236 H         1 UNK         0.0802 
     65 H65        20.3816   51.2191   15.5521 H         1 UNK         0.0802 
     66 H66        19.2705   52.9032   16.8250 H         1 UNK         0.0831 
     67 H67        17.6900   53.5824   16.5535 H         1 UNK         0.0831 
     68 H68        20.0692   53.7815   14.6379 H         1 UNK         0.1266 
     69 H69        17.4161   53.9819   13.8886 H         1 UNK         0.2858 
     70 H70        16.5231   55.4497   12.2624 H         1 UNK         0.0493 
     71 H71        18.6368   56.7284   10.4399 H         1 UNK         0.0858 
     72 H72        17.6090   57.5914   11.5747 H         1 UNK         0.0858 
     73 H73        16.8919   56.7714   10.1983 H         1 UNK         0.0858 
     74 H74        18.2360   54.3462   10.1361 H         1 UNK         0.2998 
     75 H75        17.7444   56.2478   15.6780 H         1 UNK         0.2942 
     76 H76        19.2916   57.4497   17.7313 H         1 UNK         0.0588 
     77 H77        17.1070   58.6523   15.9438 H         1 UNK         0.0836 
     78 H78        17.6944   59.3521   17.4453 H         1 UNK         0.0836 
     79 H79        16.8503   57.8143   17.4753 H         1 UNK         0.0836 
     80 H80        19.4937   57.7625   14.2522 H         1 UNK         0.3003 
     81 H81        21.4150   60.0439   14.4079 H         1 UNK         0.0959 
     82 H82        20.0063   58.7454   12.0061 H         1 UNK         0.0808 
     83 H83        19.4949   60.2377   12.7952 H         1 UNK         0.0808 
     84 H84        21.0354   60.1695   11.9577 H         1 UNK         0.0808 
     85 H85        21.5083   56.7355   14.6535 H         1 UNK         0.3181 
     86 H86        22.7984   55.0207   14.1450 H         1 UNK         0.0819 
     87 H87        25.0727   57.0669   13.9391 H         1 UNK         0.0823 
     88 H88        25.2488   55.3433   14.2348 H         1 UNK         0.0823 
     89 H89        24.4773   56.3590   15.4405 H         1 UNK         0.0823 
     90 H90        21.3576   56.1258   11.9636 H         1 UNK         0.3159 
     91 H91        21.0868   56.2140    9.7929 H         1 UNK         0.0870 
     92 H92        23.2709   58.1300   11.0046 H         1 UNK         0.3462 
     93 H93        23.9443   58.7685    9.5253 H         1 UNK         0.3462 
     94 H94        22.2215   54.5700    8.2638 H         1 UNK         0.0763 
     95 H95        23.3047   54.1189    9.5522 H         1 UNK         0.0763 
     96 H96        22.6676   52.6535   11.5547 H         1 UNK         0.0881 
     97 H97        22.6816   51.5868   10.1655 H         1 UNK         0.0881 
@<TRIPOS>BOND
     1    1    2 1    
     2    1   52 1    
     3    1   53 1    
     4    1   54 1    
     5    2    3 2    
     6    2    4 am   BACKBONE|DICT|INTERRES
     7    4    5 1    
     8    4   55 1    
     9    5    6 1    
    10    5   25 1    
    11    5   56 1    
    12    6    7 1    
    13    6   57 1    
    14    6   58 1    
    15    7    8 1    
    16    8    9 1    
    17    8   59 1    
    18    8   60 1    
    19    9   10 ar   
    20    9   14 ar   
    21   10   11 ar   
    22   10   61 1    
    23   11   12 ar   
    24   11   51 1    
    25   12   13 ar   
    26   12   62 1    
    27   13   14 ar   
    28   13   15 1    
    29   14   63 1    
    30   15   16 1    
    31   15   64 1    
    32   15   65 1    
    33   16   17 1    
    34   17   18 1    
    35   17   66 1    
    36   17   67 1    
    37   18   19 1    
    38   18   27 1    
    39   18   68 1    
    40   19   20 am   BACKBONE|DICT|INTERRES
    41   19   69 1    
    42   20   21 2    
    43   20   22 1    
    44   22   23 1    
    45   22   24 1    
    46   22   70 1    
    47   23   71 1    
    48   23   72 1    
    49   23   73 1    
    50   24   25 am   BACKBONE|DICT|INTERRES
    51   24   74 1    
    52   25   26 2    
    53   27   28 2    
    54   27   29 am   BACKBONE|DICT|INTERRES
    55   29   30 1    
    56   29   75 1    
    57   30   31 1    
    58   30   32 1    
    59   30   76 1    
    60   31   77 1    
    61   31   78 1    
    62   31   79 1    
    63   32   33 2    
    64   32   34 am   BACKBONE|DICT|INTERRES
    65   34   35 1    
    66   34   80 1    
    67   35   36 1    
    68   35   37 1    
    69   35   81 1    
    70   36   82 1    
    71   36   83 1    
    72   36   84 1    
    73   37   38 2    
    74   37   39 am   BACKBONE|DICT|INTERRES
    75   39   40 1    
    76   39   85 1    
    77   40   41 1    
    78   40   42 1    
    79   40   86 1    
    80   41   87 1    
    81   41   88 1    
    82   41   89 1    
    83   42   43 2    
    84   42   44 am   BACKBONE|DICT|INTERRES
    85   44   45 1    
    86   44   90 1    
    87   45   46 1    
    88   45   49 1    
    89   45   91 1    
    90   46   47 am   BACKBONE|DICT|INTERRES
    91   46   48 2    
    92   47   92 1    
    93   47   93 1    
    94   49   50 1    
    95   49   94 1    
    96   49   95 1    
    97   50   51 1    
    98   51   96 1    
    99   51   97 1    
@<TRIPOS>SUBSTRUCTURE
     1 UNK         1 GROUP             0       ****    0 ROOT    
