@<TRIPOS>MOLECULE
3R0
97   99    1
SMALL
USER_CHARGES


@<TRIPOS>ATOM
      1 CA         12.7770   50.0501   10.7358 C.3       0 UNK        -0.2006 
      2 C          13.9720   50.9690   10.9372 C.2       0 UNK         0.4864 
      3 O          14.1060   51.9672   10.2286 O.2       0 UNK        -0.5092 
      4 N          14.8368   50.6537   11.9096 N.am      1 UNK        -0.4825 
      5 CA         16.0684   51.3858   12.2405 C.3       1 UNK         0.0812 
      6 C6         17.1076   50.4644   12.9334 C.3       8 UNK        -0.0932 
      7 S7         17.6574   49.1260   11.8187 S.3       8 UNK        -0.2545 
      8 C8         19.4760   49.3120   11.8248 C.3       8 UNK         0.0228 
      9 C9         19.9745   50.6944   11.4067 C.ar      8 UNK        -0.0842 
     10 C10        21.0008   51.3060   12.1349 C.ar      8 UNK        -0.0874 
     11 C11        21.4768   52.5690   11.7720 C.ar      8 UNK        -0.0867 
     12 C12        20.9220   53.2244   10.6706 C.ar      8 UNK        -0.1042 
     13 C13        19.8921   52.6306    9.9390 C.ar      8 UNK        -0.0824 
     14 C14        19.4338   51.3596   10.3002 C.ar      8 UNK        -0.1194 
     15 C15        19.2693   53.3588    8.7596 C.3       8 UNK         0.0180 
     16 S16        17.6674   54.0984    9.2071 S.3       8 UNK        -0.2273 
     17 C17        18.1045   55.7936    9.7564 C.3       8 UNK        -0.0981 
     18 CA         17.8177   56.1091   11.2566 C.3       3 UNK         0.0747 
     19 N          16.5772   55.4746   11.7055 N.am      3 UNK        -0.4794 
     20 C          15.7723   55.8409   12.7087 C.2       2 UNK         0.5067 
     21 O          15.9381   56.8516   13.3892 O.2       2 UNK        -0.4802 
     22 CA         14.6103   54.8777   13.0222 C.3       2 UNK         0.0370 
     23 CB         13.3017   55.3942   12.4053 C.3       2 UNK        -0.1774 
     24 N          14.8710   53.5170   12.5330 N.am      2 UNK        -0.4750 
     25 C          15.7772   52.6732   13.0473 C.2       1 UNK         0.5001 
     26 O          16.3811   52.9016   14.0955 O.2       1 UNK        -0.4889 
     27 C          19.0298   55.8319   12.1786 C.2       3 UNK         0.4972 
     28 O          20.1501   56.1639   11.7940 O.2       3 UNK        -0.4802 
     29 N          18.8060   55.2739   13.3815 N.am      4 UNK        -0.4926 
     30 CA         19.8058   54.8737   14.3848 C.3       4 UNK         0.0426 
     31 CB         19.0901   54.4715   15.6833 C.3       4 UNK        -0.1835 
     32 C          20.9122   55.9021   14.6974 C.2       4 UNK         0.5138 
     33 O          22.0458   55.5039   14.9682 O.2       4 UNK        -0.5194 
     34 N          20.5809   57.1978   14.6223 N.am      5 UNK        -0.4222 
     35 CA         21.5159   58.3110   14.8055 C.3       5 UNK         0.0221 
     36 CB         20.7231   59.6257   14.8845 C.3       5 UNK        -0.2034 
     37 C          22.6043   58.4082   13.7184 C.2       5 UNK         0.4987 
     38 O          23.6820   58.9332   14.0020 O.2       5 UNK        -0.5478 
     39 N          22.3314   57.8999   12.5059 N.am      6 UNK        -0.4365 
     40 CA         23.2393   57.9605   11.3530 C.3       6 UNK         0.0273 
     41 CB         22.4800   57.5550   10.0787 C.3       6 UNK        -0.1956 
     42 C          24.5119   57.1086   11.5089 C.2       6 UNK         0.4962 
     43 O          25.4939   57.3690   10.8118 O.2       6 UNK        -0.5385 
     44 N          24.4800   56.1221   12.4124 N.am      7 UNK        -0.4054 
     45 CA         25.6303   55.2805   12.7718 C.3       7 UNK         0.0701 
     46 C          26.5880   55.9476   13.8009 C.2       7 UNK         0.5602 
     47 N          26.2813   57.1183   14.3500 N.am      7 UNK        -0.7339 
     48 O          27.6432   55.3947   14.1005 O.2       7 UNK        -0.5126 
     49 C49        25.1880   53.8680   13.2404 C.3       8 UNK        -0.0906 
     50 S50        24.2231   52.9605   11.9808 S.3       8 UNK        -0.2590 
     51 C51        22.5445   53.2560   12.6057 C.3       8 UNK         0.0201 
     52 H52        12.7853   49.2117   11.4320 H         1 UNK         0.0901 
     53 H53        12.7798   49.6495    9.7225 H         1 UNK         0.0901 
     54 H54        11.8496   50.6035   10.8812 H         1 UNK         0.0901 
     55 H55        14.6654   49.8308   12.4700 H         1 UNK         0.3005 
     56 H56        16.5202   51.7284   11.3059 H         1 UNK         0.1258 
     57 H57        16.6892   50.0201   13.8380 H         1 UNK         0.0713 
     58 H58        17.9802   51.0367   13.2537 H         1 UNK         0.0713 
     59 H59        19.9043   48.5707   11.1491 H         1 UNK         0.0869 
     60 H60        19.8382   49.0604   12.8229 H         1 UNK         0.0869 
     61 H61        21.4271   50.8031   12.9925 H         1 UNK         0.1451 
     62 H62        21.2785   54.2076   10.3965 H         1 UNK         0.1348 
     63 H63        18.6416   50.8962    9.7282 H         1 UNK         0.1248 
     64 H64        19.9435   54.1198    8.3640 H         1 UNK         0.0802 
     65 H65        19.1086   52.6487    7.9472 H         1 UNK         0.0802 
     66 H66        17.4980   56.4663    9.1483 H         1 UNK         0.0831 
     67 H67        19.1328   56.0276    9.4755 H         1 UNK         0.0831 
     68 H68        17.6695   57.1890   11.3309 H         1 UNK         0.1266 
     69 H69        16.3430   54.6267   11.2090 H         1 UNK         0.2858 
     70 H70        14.4901   54.8399   14.1068 H         1 UNK         0.0493 
     71 H71        13.3596   55.4450   11.3173 H         1 UNK         0.0858 
     72 H72        13.0690   56.3969   12.7667 H         1 UNK         0.0858 
     73 H73        12.4595   54.7535   12.6671 H         1 UNK         0.0858 
     74 H74        14.4155   53.2350   11.6686 H         1 UNK         0.2998 
     75 H75        17.8490   55.0387   13.6047 H         1 UNK         0.2942 
     76 H76        20.2929   53.9816   13.9945 H         1 UNK         0.0588 
     77 H77        18.4757   55.2831   16.0747 H         1 UNK         0.0836 
     78 H78        19.8067   54.2000   16.4600 H         1 UNK         0.0836 
     79 H79        18.4475   53.6053   15.5313 H         1 UNK         0.0836 
     80 H80        19.6273   57.4301   14.3858 H         1 UNK         0.3003 
     81 H81        22.0270   58.1612   15.7592 H         1 UNK         0.0959 
     82 H82        20.1703   59.8201   13.9645 H         1 UNK         0.0808 
     83 H83        20.0106   59.6117   15.7096 H         1 UNK         0.0808 
     84 H84        21.3895   60.4737   15.0495 H         1 UNK         0.0808 
     85 H85        21.4437   57.4260   12.3533 H         1 UNK         0.3181 
     86 H86        23.5586   58.9988   11.2408 H         1 UNK         0.0819 
     87 H87        22.1816   56.5066   10.1033 H         1 UNK         0.0823 
     88 H88        21.5821   58.1571    9.9388 H         1 UNK         0.0823 
     89 H89        23.1033   57.6923    9.1941 H         1 UNK         0.0823 
     90 H90        23.6481   56.0055   12.9720 H         1 UNK         0.3159 
     91 H91        26.2353   55.1414   11.8741 H         1 UNK         0.0870 
     92 H92        25.4258   57.6041   14.1130 H         1 UNK         0.3462 
     93 H93        26.9221   57.5306   15.0093 H         1 UNK         0.3462 
     94 H94        26.0622   53.2564   13.4717 H         1 UNK         0.0763 
     95 H95        24.6179   53.9346   14.1693 H         1 UNK         0.0763 
     96 H96        22.3546   54.3285   12.6062 H         1 UNK         0.0881 
     97 H97        22.4794   52.9267   13.6441 H         1 UNK         0.0881 
@<TRIPOS>BOND
     1    1    2 1    
     2    1   52 1    
     3    1   53 1    
     4    1   54 1    
     5    2    3 2    
     6    2    4 am   BACKBONE|DICT|INTERRES
     7    4    5 1    
     8    4   55 1    
     9    5    6 1    
    10    5   25 1    
    11    5   56 1    
    12    6    7 1    
    13    6   57 1    
    14    6   58 1    
    15    7    8 1    
    16    8    9 1    
    17    8   59 1    
    18    8   60 1    
    19    9   10 ar   
    20    9   14 ar   
    21   10   11 ar   
    22   10   61 1    
    23   11   12 ar   
    24   11   51 1    
    25   12   13 ar   
    26   12   62 1    
    27   13   14 ar   
    28   13   15 1    
    29   14   63 1    
    30   15   16 1    
    31   15   64 1    
    32   15   65 1    
    33   16   17 1    
    34   17   18 1    
    35   17   66 1    
    36   17   67 1    
    37   18   19 1    
    38   18   27 1    
    39   18   68 1    
    40   19   20 am   BACKBONE|DICT|INTERRES
    41   19   69 1    
    42   20   21 2    
    43   20   22 1    
    44   22   23 1    
    45   22   24 1    
    46   22   70 1    
    47   23   71 1    
    48   23   72 1    
    49   23   73 1    
    50   24   25 am   BACKBONE|DICT|INTERRES
    51   24   74 1    
    52   25   26 2    
    53   27   28 2    
    54   27   29 am   BACKBONE|DICT|INTERRES
    55   29   30 1    
    56   29   75 1    
    57   30   31 1    
    58   30   32 1    
    59   30   76 1    
    60   31   77 1    
    61   31   78 1    
    62   31   79 1    
    63   32   33 2    
    64   32   34 am   BACKBONE|DICT|INTERRES
    65   34   35 1    
    66   34   80 1    
    67   35   36 1    
    68   35   37 1    
    69   35   81 1    
    70   36   82 1    
    71   36   83 1    
    72   36   84 1    
    73   37   38 2    
    74   37   39 am   BACKBONE|DICT|INTERRES
    75   39   40 1    
    76   39   85 1    
    77   40   41 1    
    78   40   42 1    
    79   40   86 1    
    80   41   87 1    
    81   41   88 1    
    82   41   89 1    
    83   42   43 2    
    84   42   44 am   BACKBONE|DICT|INTERRES
    85   44   45 1    
    86   44   90 1    
    87   45   46 1    
    88   45   49 1    
    89   45   91 1    
    90   46   47 am   BACKBONE|DICT|INTERRES
    91   46   48 2    
    92   47   92 1    
    93   47   93 1    
    94   49   50 1    
    95   49   94 1    
    96   49   95 1    
    97   50   51 1    
    98   51   96 1    
    99   51   97 1    
@<TRIPOS>SUBSTRUCTURE
     1 UNK         1 GROUP             0       ****    0 ROOT    
