@<TRIPOS>MOLECULE
3R0
97   99    1
SMALL
USER_CHARGES


@<TRIPOS>ATOM
      1 CA         13.9997   53.7987    7.8066 C.3       0 UNK        -0.2006 
      2 C          15.3126   54.3210    8.3698 C.2       0 UNK         0.4864 
      3 O          15.5468   55.5295    8.3574 O.2       0 UNK        -0.5092 
      4 N          16.1726   53.4185    8.8601 N.am      1 UNK        -0.4825 
      5 CA         17.4672   53.7370    9.4765 C.3       1 UNK         0.0812 
      6 C6         18.3790   52.4852    9.5893 C.3       8 UNK        -0.0932 
      7 S7         17.5856   51.0613   10.4143 S.3       8 UNK        -0.2545 
      8 C8         18.9608   49.8695   10.4834 C.3       8 UNK         0.0228 
      9 C9         19.9314   50.1688   11.6183 C.ar      8 UNK        -0.0842 
     10 C10        21.2577   50.5200   11.3501 C.ar      8 UNK        -0.0874 
     11 C11        22.1595   50.7460   12.3961 C.ar      8 UNK        -0.0867 
     12 C12        21.7182   50.6454   13.7203 C.ar      8 UNK        -0.1042 
     13 C13        20.3929   50.2943   14.0014 C.ar      8 UNK        -0.0824 
     14 C14        19.5111   50.0455   12.9449 C.ar      8 UNK        -0.1194 
     15 C15        19.9130   50.1623   15.4423 C.3       8 UNK         0.0180 
     16 S16        18.4754   51.2274   15.8008 S.3       8 UNK        -0.2273 
     17 C17        19.2318   52.8857   15.8339 C.3       8 UNK        -0.0981 
     18 CA         19.3130   53.5448   14.4314 C.3       3 UNK         0.0747 
     19 N          18.0370   53.6587   13.7230 N.am      3 UNK        -0.4794 
     20 C          16.9760   54.4164   14.0252 C.2       2 UNK         0.5067 
     21 O          16.8398   55.0087   15.0966 O.2       2 UNK        -0.4802 
     22 CA         15.8942   54.5660   12.9324 C.3       2 UNK         0.0370 
     23 CB         15.3944   56.0211   12.8317 C.3       2 UNK        -0.1774 
     24 N          16.2813   54.0734   11.5992 N.am      2 UNK        -0.4750 
     25 C          17.3227   54.4512   10.8362 C.2       1 UNK         0.5001 
     26 O          18.1612   55.2900   11.1721 O.2       1 UNK        -0.4889 
     27 C          20.0614   54.8893   14.4645 C.2       3 UNK         0.4972 
     28 O          21.0398   55.0531   13.7397 O.2       3 UNK        -0.4802 
     29 N          19.5844   55.8301   15.2891 N.am      4 UNK        -0.4926 
     30 CA         20.2174   57.1186   15.5765 C.3       4 UNK         0.0426 
     31 CB         19.4487   57.8109   16.7127 C.3       4 UNK        -0.1835 
     32 C          20.3509   58.0630   14.3692 C.2       4 UNK         0.5138 
     33 O          21.2768   58.8745   14.3557 O.2       4 UNK        -0.5194 
     34 N          19.4450   57.9561   13.3865 N.am      5 UNK        -0.4222 
     35 CA         19.4820   58.7757   12.1728 C.3       5 UNK         0.0221 
     36 CB         18.1046   58.7956   11.4896 C.3       5 UNK        -0.2034 
     37 C          20.5866   58.3188   11.2072 C.2       5 UNK         0.4987 
     38 O          21.3661   59.1540   10.7470 O.2       5 UNK        -0.5478 
     39 N          20.6413   57.0107   10.9222 N.am      6 UNK        -0.4365 
     40 CA         21.6324   56.4177   10.0210 C.3       6 UNK         0.0273 
     41 CB         21.1079   55.0747    9.4921 C.3       6 UNK        -0.1956 
     42 C          23.0090   56.2179   10.6732 C.2       6 UNK         0.4962 
     43 O          24.0236   56.4854   10.0268 O.2       6 UNK        -0.5385 
     44 N          23.0186   55.7138   11.9113 N.am      7 UNK        -0.4054 
     45 CA         24.2072   55.2088   12.6156 C.3       7 UNK         0.0701 
     46 C          24.5664   56.0226   13.8882 C.2       7 UNK         0.5602 
     47 N          23.9002   57.1296   14.1877 N.am      7 UNK        -0.7339 
     48 O          25.4908   55.6590   14.6110 O.2       7 UNK        -0.5126 
     49 C49        24.0672   53.6895   12.9196 C.3       8 UNK        -0.0906 
     50 S50        23.8830   52.6949   11.4014 S.3       8 UNK        -0.2590 
     51 C51        23.6238   51.0298   12.0861 C.3       8 UNK         0.0201 
     52 H52        13.9288   52.7134    7.8761 H         1 UNK         0.0901 
     53 H53        13.9040   54.0782    6.7577 H         1 UNK         0.0901 
     54 H54        13.1603   54.2291    8.3521 H         1 UNK         0.0901 
     55 H55        15.9359   52.4358    8.8403 H         1 UNK         0.3005 
     56 H56        17.9656   54.4499    8.8165 H         1 UNK         0.1258 
     57 H57        19.3055   52.7210   10.1146 H         1 UNK         0.0713 
     58 H58        18.6789   52.1675    8.5896 H         1 UNK         0.0713 
     59 H59        18.5486   48.8703   10.6307 H         1 UNK         0.0869 
     60 H60        19.4730   49.8465    9.5202 H         1 UNK         0.0869 
     61 H61        21.5997   50.5957   10.3267 H         1 UNK         0.1451 
     62 H62        22.4123   50.8192   14.5313 H         1 UNK         0.1348 
     63 H63        18.4885   49.7631   13.1562 H         1 UNK         0.1248 
     64 H64        19.6296   49.1242   15.6198 H         1 UNK         0.0802 
     65 H65        20.7142   50.3853   16.1485 H         1 UNK         0.0802 
     66 H66        20.2255   52.8076   16.2791 H         1 UNK         0.0831 
     67 H67        18.6436   53.4996   16.5176 H         1 UNK         0.0831 
     68 H68        19.9257   52.9020   13.7999 H         1 UNK         0.1266 
     69 H69        18.0223   53.2165   12.8155 H         1 UNK         0.2858 
     70 H70        15.0553   53.9465   13.2520 H         1 UNK         0.0493 
     71 H71        16.2023   56.7081   12.5825 H         1 UNK         0.0858 
     72 H72        14.6209   56.1242   12.0708 H         1 UNK         0.0858 
     73 H73        14.9635   56.3566   13.7758 H         1 UNK         0.0858 
     74 H74        15.6887   53.3474   11.2200 H         1 UNK         0.2998 
     75 H75        18.7034   55.6364   15.7529 H         1 UNK         0.2942 
     76 H76        21.2290   56.9089   15.9307 H         1 UNK         0.0588 
     77 H77        19.9084   58.7660   16.9713 H         1 UNK         0.0836 
     78 H78        19.4424   57.2022   17.6171 H         1 UNK         0.0836 
     79 H79        18.4131   58.0117   16.4350 H         1 UNK         0.0836 
     80 H80        18.7285   57.2487   13.4598 H         1 UNK         0.3003 
     81 H81        19.7106   59.8031   12.4666 H         1 UNK         0.0959 
     82 H82        17.3286   59.1475   12.1695 H         1 UNK         0.0808 
     83 H83        18.1109   59.4690   10.6315 H         1 UNK         0.0808 
     84 H84        17.8102   57.8142   11.1221 H         1 UNK         0.0808 
     85 H85        19.9265   56.3946   11.2967 H         1 UNK         0.3181 
     86 H86        21.7654   57.0830    9.1648 H         1 UNK         0.0819 
     87 H87        20.9169   54.3739   10.3054 H         1 UNK         0.0823 
     88 H88        20.1864   55.2077    8.9278 H         1 UNK         0.0823 
     89 H89        21.8318   54.6066    8.8234 H         1 UNK         0.0823 
     90 H90        22.1417   55.5447   12.3999 H         1 UNK         0.3159 
     91 H91        25.0812   55.3275   11.9737 H         1 UNK         0.0870 
     92 H92        24.1579   57.6492   15.0112 H         1 UNK         0.3462 
     93 H93        23.1452   57.4580   13.6062 H         1 UNK         0.3462 
     94 H94        23.2121   53.5027   13.5713 H         1 UNK         0.0763 
     95 H95        24.9462   53.3199   13.4510 H         1 UNK         0.0763 
     96 H96        24.2470   50.8924   12.9711 H         1 UNK         0.0881 
     97 H97        23.9763   50.2981   11.3576 H         1 UNK         0.0881 
@<TRIPOS>BOND
     1    1    2 1    
     2    1   52 1    
     3    1   53 1    
     4    1   54 1    
     5    2    3 2    
     6    2    4 am   BACKBONE|DICT|INTERRES
     7    4    5 1    
     8    4   55 1    
     9    5    6 1    
    10    5   25 1    
    11    5   56 1    
    12    6    7 1    
    13    6   57 1    
    14    6   58 1    
    15    7    8 1    
    16    8    9 1    
    17    8   59 1    
    18    8   60 1    
    19    9   10 ar   
    20    9   14 ar   
    21   10   11 ar   
    22   10   61 1    
    23   11   12 ar   
    24   11   51 1    
    25   12   13 ar   
    26   12   62 1    
    27   13   14 ar   
    28   13   15 1    
    29   14   63 1    
    30   15   16 1    
    31   15   64 1    
    32   15   65 1    
    33   16   17 1    
    34   17   18 1    
    35   17   66 1    
    36   17   67 1    
    37   18   19 1    
    38   18   27 1    
    39   18   68 1    
    40   19   20 am   BACKBONE|DICT|INTERRES
    41   19   69 1    
    42   20   21 2    
    43   20   22 1    
    44   22   23 1    
    45   22   24 1    
    46   22   70 1    
    47   23   71 1    
    48   23   72 1    
    49   23   73 1    
    50   24   25 am   BACKBONE|DICT|INTERRES
    51   24   74 1    
    52   25   26 2    
    53   27   28 2    
    54   27   29 am   BACKBONE|DICT|INTERRES
    55   29   30 1    
    56   29   75 1    
    57   30   31 1    
    58   30   32 1    
    59   30   76 1    
    60   31   77 1    
    61   31   78 1    
    62   31   79 1    
    63   32   33 2    
    64   32   34 am   BACKBONE|DICT|INTERRES
    65   34   35 1    
    66   34   80 1    
    67   35   36 1    
    68   35   37 1    
    69   35   81 1    
    70   36   82 1    
    71   36   83 1    
    72   36   84 1    
    73   37   38 2    
    74   37   39 am   BACKBONE|DICT|INTERRES
    75   39   40 1    
    76   39   85 1    
    77   40   41 1    
    78   40   42 1    
    79   40   86 1    
    80   41   87 1    
    81   41   88 1    
    82   41   89 1    
    83   42   43 2    
    84   42   44 am   BACKBONE|DICT|INTERRES
    85   44   45 1    
    86   44   90 1    
    87   45   46 1    
    88   45   49 1    
    89   45   91 1    
    90   46   47 am   BACKBONE|DICT|INTERRES
    91   46   48 2    
    92   47   92 1    
    93   47   93 1    
    94   49   50 1    
    95   49   94 1    
    96   49   95 1    
    97   50   51 1    
    98   51   96 1    
    99   51   97 1    
@<TRIPOS>SUBSTRUCTURE
     1 UNK         1 GROUP             0       ****    0 ROOT    
