@<TRIPOS>MOLECULE
3R0
97   99    1
SMALL
USER_CHARGES


@<TRIPOS>ATOM
      1 CA         14.3230   49.5038    9.8451 C.3       0 UNK        -0.2006 
      2 C          14.6007   50.9912    9.6853 C.2       0 UNK         0.4864 
      3 O          13.6969   51.7500    9.3324 O.2       0 UNK        -0.5092 
      4 N          15.8461   51.4109    9.9353 N.am      1 UNK        -0.4825 
      5 CA         16.2780   52.8112    9.8933 C.3       1 UNK         0.0812 
      6 C6         17.8152   52.9491    9.7236 C.3       8 UNK        -0.0932 
      7 S7         18.5510   51.9955    8.3489 S.3       8 UNK        -0.2545 
      8 C8         19.1531   50.4625    9.1462 C.3       8 UNK         0.0228 
      9 C9         19.9062   50.7121   10.4474 C.ar      8 UNK        -0.0842 
     10 C10        21.1768   51.2956   10.4367 C.ar      8 UNK        -0.0874 
     11 C11        21.8533   51.5680   11.6321 C.ar      8 UNK        -0.0867 
     12 C12        21.2388   51.2345   12.8480 C.ar      8 UNK        -0.1042 
     13 C13        19.9695   50.6513   12.8708 C.ar      8 UNK        -0.0824 
     14 C14        19.3132   50.3826   11.6688 C.ar      8 UNK        -0.1194 
     15 C15        19.2969   50.3159   14.1927 C.3       8 UNK         0.0180 
     16 S16        18.0549   51.5676   14.6466 S.3       8 UNK        -0.2273 
     17 C17        19.0965   52.9741   15.1655 C.3       8 UNK        -0.0981 
     18 CA         19.1732   54.1044   14.1086 C.3       3 UNK         0.0747 
     19 N          17.8414   54.5783   13.6984 N.am      3 UNK        -0.4794 
     20 C          17.5793   55.5851   12.8541 C.2       2 UNK         0.5067 
     21 O          18.4355   56.3446   12.3986 O.2       2 UNK        -0.4802 
     22 CA         16.1265   55.7061   12.3652 C.3       2 UNK         0.0370 
     23 CB         15.7490   57.1610   12.0348 C.3       2 UNK        -0.1774 
     24 N          15.9958   54.8850   11.1618 N.am      2 UNK        -0.4750 
     25 C          15.8610   53.5521   11.1820 C.2       1 UNK         0.5001 
     26 O          15.5328   52.9200   12.1901 O.2       1 UNK        -0.4889 
     27 C          20.1033   55.2265   14.6091 C.2       3 UNK         0.4972 
     28 O          21.2637   55.2845   14.2018 O.2       3 UNK        -0.4802 
     29 N          19.5589   56.1242   15.4435 N.am      4 UNK        -0.4926 
     30 CA         20.2623   57.2727   16.0242 C.3       4 UNK         0.0426 
     31 CB         19.3672   57.9253   17.0892 C.3       4 UNK        -0.1835 
     32 C          20.7197   58.3222   14.9933 C.2       4 UNK         0.5138 
     33 O          21.7100   59.0106   15.2415 O.2       4 UNK        -0.5194 
     34 N          20.0041   58.4236   13.8657 N.am      5 UNK        -0.4222 
     35 CA         20.3688   59.2787   12.7362 C.3       5 UNK         0.0221 
     36 CB         19.0946   59.7665   12.0261 C.3       5 UNK        -0.2034 
     37 C          21.2878   58.5372   11.7541 C.2       5 UNK         0.4987 
     38 O          22.2241   59.1423   11.2311 O.2       5 UNK        -0.5478 
     39 N          20.9996   57.2497   11.5149 N.am      6 UNK        -0.4365 
     40 CA         21.7200   56.3848   10.5794 C.3       6 UNK         0.0273 
     41 CB         20.9255   55.0858   10.3722 C.3       6 UNK        -0.1956 
     42 C          23.1656   56.0780   11.0034 C.2       6 UNK         0.4962 
     43 O          24.0495   56.0729   10.1447 O.2       6 UNK        -0.5385 
     44 N          23.3846   55.8242   12.2982 N.am      7 UNK        -0.4054 
     45 CA         24.7031   55.4987   12.8655 C.3       7 UNK         0.0701 
     46 C          24.8686   55.8752   14.3611 C.2       7 UNK         0.5602 
     47 N          23.8056   56.0469   15.1349 N.am      7 UNK        -0.7339 
     48 O          25.9937   56.0415   14.8256 O.2       7 UNK        -0.5126 
     49 C49        25.1492   54.0380   12.5686 C.3       8 UNK        -0.0906 
     50 S50        23.9458   52.7860   13.1362 S.3       8 UNK        -0.2590 
     51 C51        23.2304   52.2321   11.5472 C.3       8 UNK         0.0201 
     52 H52        13.9671   49.0854    8.9040 H         1 UNK         0.0901 
     53 H53        13.5546   49.3455   10.6013 H         1 UNK         0.0901 
     54 H54        15.2136   48.9523   10.1460 H         1 UNK         0.0901 
     55 H55        16.5404   50.7537   10.2551 H         1 UNK         0.3005 
     56 H56        15.7875   53.2974    9.0464 H         1 UNK         0.1258 
     57 H57        18.3323   52.7264   10.6565 H         1 UNK         0.0713 
     58 H58        18.0563   53.9924    9.5173 H         1 UNK         0.0713 
     59 H59        18.3065   49.7958    9.3144 H         1 UNK         0.0869 
     60 H60        19.8079   49.9392    8.4480 H         1 UNK         0.0869 
     61 H61        21.6308   51.5563    9.4901 H         1 UNK         0.1451 
     62 H62        21.7328   51.4319   13.7880 H         1 UNK         0.1348 
     63 H63        18.3277   49.9382   11.6908 H         1 UNK         0.1248 
     64 H64        18.8030   49.3466   14.1107 H         1 UNK         0.0802 
     65 H65        20.0316   50.2132   14.9928 H         1 UNK         0.0802 
     66 H66        20.0959   52.6080   15.4089 H         1 UNK         0.0831 
     67 H67        18.6833   53.3561   16.1010 H         1 UNK         0.0831 
     68 H68        19.6402   53.6902   13.2127 H         1 UNK         0.1266 
     69 H69        17.0739   53.9748   13.9623 H         1 UNK         0.2858 
     70 H70        15.4533   55.3467   13.1466 H         1 UNK         0.0493 
     71 H71        16.3609   57.5716   11.2308 H         1 UNK         0.0858 
     72 H72        14.7051   57.2383   11.7309 H         1 UNK         0.0858 
     73 H73        15.8814   57.8047   12.9053 H         1 UNK         0.0858 
     74 H74        16.2831   55.3270   10.2997 H         1 UNK         0.2998 
     75 H75        18.5891   56.0057   15.7010 H         1 UNK         0.2942 
     76 H76        21.1582   56.8942   16.5206 H         1 UNK         0.0588 
     77 H77        19.8740   58.7681   17.5616 H         1 UNK         0.0836 
     78 H78        19.1114   57.2204   17.8804 H         1 UNK         0.0836 
     79 H79        18.4382   58.3033   16.6606 H         1 UNK         0.0836 
     80 H80        19.2313   57.7851   13.7241 H         1 UNK         0.3003 
     81 H81        20.9067   60.1569   13.1011 H         1 UNK         0.0959 
     82 H82        18.4498   60.3221   12.7071 H         1 UNK         0.0808 
     83 H83        19.3425   60.4328   11.1988 H         1 UNK         0.0808 
     84 H84        18.5142   58.9404   11.6145 H         1 UNK         0.0808 
     85 H85        20.1655   56.8577   11.9447 H         1 UNK         0.3181 
     86 H86        21.7644   56.9075    9.6215 H         1 UNK         0.0819 
     87 H87        20.8460   54.5065   11.2921 H         1 UNK         0.0823 
     88 H88        19.9170   55.2979   10.0204 H         1 UNK         0.0823 
     89 H89        21.4008   54.4496    9.6246 H         1 UNK         0.0823 
     90 H90        22.6009   55.8043   12.9429 H         1 UNK         0.3159 
     91 H91        25.4201   56.1517   12.3642 H         1 UNK         0.0870 
     92 H92        22.8719   55.8219   14.8084 H         1 UNK         0.3462 
     93 H93        23.9483   56.3092   16.0965 H         1 UNK         0.3462 
     94 H94        25.3216   53.9159   11.4983 H         1 UNK         0.0763 
     95 H95        26.1123   53.8268   13.0370 H         1 UNK         0.0763 
     96 H96        23.1534   53.0913   10.8809 H         1 UNK         0.0881 
     97 H97        23.9291   51.5393   11.0763 H         1 UNK         0.0881 
@<TRIPOS>BOND
     1    1    2 1    
     2    1   52 1    
     3    1   53 1    
     4    1   54 1    
     5    2    3 2    
     6    2    4 am   BACKBONE|DICT|INTERRES
     7    4    5 1    
     8    4   55 1    
     9    5    6 1    
    10    5   25 1    
    11    5   56 1    
    12    6    7 1    
    13    6   57 1    
    14    6   58 1    
    15    7    8 1    
    16    8    9 1    
    17    8   59 1    
    18    8   60 1    
    19    9   10 ar   
    20    9   14 ar   
    21   10   11 ar   
    22   10   61 1    
    23   11   12 ar   
    24   11   51 1    
    25   12   13 ar   
    26   12   62 1    
    27   13   14 ar   
    28   13   15 1    
    29   14   63 1    
    30   15   16 1    
    31   15   64 1    
    32   15   65 1    
    33   16   17 1    
    34   17   18 1    
    35   17   66 1    
    36   17   67 1    
    37   18   19 1    
    38   18   27 1    
    39   18   68 1    
    40   19   20 am   BACKBONE|DICT|INTERRES
    41   19   69 1    
    42   20   21 2    
    43   20   22 1    
    44   22   23 1    
    45   22   24 1    
    46   22   70 1    
    47   23   71 1    
    48   23   72 1    
    49   23   73 1    
    50   24   25 am   BACKBONE|DICT|INTERRES
    51   24   74 1    
    52   25   26 2    
    53   27   28 2    
    54   27   29 am   BACKBONE|DICT|INTERRES
    55   29   30 1    
    56   29   75 1    
    57   30   31 1    
    58   30   32 1    
    59   30   76 1    
    60   31   77 1    
    61   31   78 1    
    62   31   79 1    
    63   32   33 2    
    64   32   34 am   BACKBONE|DICT|INTERRES
    65   34   35 1    
    66   34   80 1    
    67   35   36 1    
    68   35   37 1    
    69   35   81 1    
    70   36   82 1    
    71   36   83 1    
    72   36   84 1    
    73   37   38 2    
    74   37   39 am   BACKBONE|DICT|INTERRES
    75   39   40 1    
    76   39   85 1    
    77   40   41 1    
    78   40   42 1    
    79   40   86 1    
    80   41   87 1    
    81   41   88 1    
    82   41   89 1    
    83   42   43 2    
    84   42   44 am   BACKBONE|DICT|INTERRES
    85   44   45 1    
    86   44   90 1    
    87   45   46 1    
    88   45   49 1    
    89   45   91 1    
    90   46   47 am   BACKBONE|DICT|INTERRES
    91   46   48 2    
    92   47   92 1    
    93   47   93 1    
    94   49   50 1    
    95   49   94 1    
    96   49   95 1    
    97   50   51 1    
    98   51   96 1    
    99   51   97 1    
@<TRIPOS>SUBSTRUCTURE
     1 UNK         1 GROUP             0       ****    0 ROOT    
