@<TRIPOS>MOLECULE
3R0
97   99    1
SMALL
USER_CHARGES


@<TRIPOS>ATOM
      1 CA         13.3914   49.6227    9.3202 C.3       0 UNK        -0.2006 
      2 C          13.9695   50.9788    8.9437 C.2       0 UNK         0.4864 
      3 O          13.6460   51.5099    7.8807 O.2       0 UNK        -0.5092 
      4 N          14.8167   51.5441    9.8077 N.am      1 UNK        -0.4825 
      5 CA         15.4704   52.8407    9.6332 C.3       1 UNK         0.0812 
      6 C6         16.6782   52.7836    8.6545 C.3       8 UNK        -0.0932 
      7 S7         17.9500   51.5421    9.0860 S.3       8 UNK        -0.2545 
      8 C8         19.2528   52.6159    9.7643 C.3       8 UNK         0.0228 
      9 C9         20.0952   51.9142   10.8189 C.ar      8 UNK        -0.0842 
     10 C10        21.4853   51.8390   10.6912 C.ar      8 UNK        -0.0874 
     11 C11        22.2651   51.2928   11.7167 C.ar      8 UNK        -0.0867 
     12 C12        21.6411   50.8107   12.8724 C.ar      8 UNK        -0.1042 
     13 C13        20.2497   50.8608   13.0034 C.ar      8 UNK        -0.0824 
     14 C14        19.4850   51.4010   11.9651 C.ar      8 UNK        -0.1194 
     15 C15        19.5779   50.3317   14.2662 C.3       8 UNK         0.0180 
     16 S16        18.3126   51.4649   14.9347 S.3       8 UNK        -0.2273 
     17 C17        19.3105   52.9272   15.3746 C.3       8 UNK        -0.0981 
     18 CA         19.3585   54.0099   14.2640 C.3       3 UNK         0.0747 
     19 N          18.0291   54.3886   13.7673 N.am      3 UNK        -0.4794 
     20 C          17.7915   55.2419   12.7631 C.2       2 UNK         0.5067 
     21 O          18.6692   55.8699   12.1668 O.2       2 UNK        -0.4802 
     22 CA         16.3213   55.4313   12.3605 C.3       2 UNK         0.0370 
     23 CB         15.9794   56.9208   12.1862 C.3       2 UNK        -0.1774 
     24 N          16.0162   54.7180   11.1187 N.am      2 UNK        -0.4750 
     25 C          15.8284   53.3944   11.0262 C.2       1 UNK         0.5001 
     26 O          15.9022   52.6258   11.9895 O.2       1 UNK        -0.4889 
     27 C          20.1758   55.2186   14.7451 C.2       3 UNK         0.4972 
     28 O          21.3320   55.3635   14.3509 O.2       3 UNK        -0.4802 
     29 N          19.5445   56.0836   15.5520 N.am      4 UNK        -0.4926 
     30 CA         20.1548   57.2816   16.1377 C.3       4 UNK         0.0426 
     31 CB         19.1858   57.8940   17.1612 C.3       4 UNK        -0.1835 
     32 C          20.5804   58.3384   15.1027 C.2       4 UNK         0.5138 
     33 O          21.5279   59.0815   15.3595 O.2       4 UNK        -0.5194 
     34 N          19.8829   58.3813   13.9603 N.am      5 UNK        -0.4222 
     35 CA         20.2096   59.2549   12.8355 C.3       5 UNK         0.0221 
     36 CB         18.9379   59.5479   12.0220 C.3       5 UNK        -0.2034 
     37 C          21.2949   58.6369   11.9425 C.2       5 UNK         0.4987 
     38 O          22.2296   59.3393   11.5560 O.2       5 UNK        -0.5478 
     39 N          21.1376   57.3483   11.6099 N.am      6 UNK        -0.4365 
     40 CA         21.9958   56.6335   10.6666 C.3       6 UNK         0.0273 
     41 CB         21.2625   55.3813   10.1665 C.3       6 UNK        -0.1956 
     42 C          23.3717   56.2577   11.2367 C.2       6 UNK         0.4962 
     43 O          24.3780   56.4973   10.5664 O.2       6 UNK        -0.5385 
     44 N          23.3899   55.6519   12.4299 N.am      7 UNK        -0.4054 
     45 CA         24.5868   55.0578   13.0501 C.3       7 UNK         0.0701 
     46 C          24.8825   55.5993   14.4727 C.2       7 UNK         0.5602 
     47 N          23.9233   56.1738   15.1848 N.am      7 UNK        -0.7339 
     48 O          26.0181   55.5145   14.9336 O.2       7 UNK        -0.5126 
     49 C49        24.5199   53.5053   13.0445 C.3       8 UNK        -0.0906 
     50 S50        24.5761   52.8212   11.3533 S.3       8 UNK        -0.2590 
     51 C51        23.7784   51.1964   11.5638 C.3       8 UNK         0.0201 
     52 H52        13.6539   48.8812    8.5661 H         1 UNK         0.0901 
     53 H53        12.3049   49.6805    9.3786 H         1 UNK         0.0901 
     54 H54        13.7653   49.2739   10.2828 H         1 UNK         0.0901 
     55 H55        15.0340   51.1010   10.6925 H         1 UNK         0.3005 
     56 H56        14.7290   53.5262    9.2154 H         1 UNK         0.1258 
     57 H57        16.3151   52.5352    7.6562 H         1 UNK         0.0713 
     58 H58        17.1373   53.7682    8.5500 H         1 UNK         0.0713 
     59 H59        18.8055   53.4953   10.2293 H         1 UNK         0.0869 
     60 H60        19.8708   52.9802    8.9424 H         1 UNK         0.0869 
     61 H61        21.9688   52.2272    9.8051 H         1 UNK         0.1451 
     62 H62        22.2394   50.3880   13.6681 H         1 UNK         0.1348 
     63 H63        18.4092   51.4587   12.0641 H         1 UNK         0.1248 
     64 H64        19.1039   49.3775   14.0335 H         1 UNK         0.0802 
     65 H65        20.3148   50.1288   15.0448 H         1 UNK         0.0802 
     66 H66        20.3200   52.6005   15.6327 H         1 UNK         0.0831 
     67 H67        18.8854   53.3392   16.2918 H         1 UNK         0.0831 
     68 H68        19.9074   53.6052   13.4130 H         1 UNK         0.1266 
     69 H69        17.2514   53.8785   14.1621 H         1 UNK         0.2858 
     70 H70        15.6866   55.0389   13.1583 H         1 UNK         0.0493 
     71 H71        16.5110   57.3640   11.3439 H         1 UNK         0.0858 
     72 H72        14.9120   57.0638   12.0175 H         1 UNK         0.0858 
     73 H73        16.2439   57.4919   13.0771 H         1 UNK         0.0858 
     74 H74        15.9697   55.2809   10.2811 H         1 UNK         0.2998 
     75 H75        18.5848   55.8905   15.8022 H         1 UNK         0.2942 
     76 H76        21.0555   56.9668   16.6691 H         1 UNK         0.0588 
     77 H77        19.6235   58.7743   17.6344 H         1 UNK         0.0836 
     78 H78        18.9480   57.1874   17.9565 H         1 UNK         0.0836 
     79 H79        18.2498   58.2063   16.6964 H         1 UNK         0.0836 
     80 H80        19.1403   57.7104   13.8273 H         1 UNK         0.3003 
     81 H81        20.5891   60.2051   13.2190 H         1 UNK         0.0959 
     82 H82        18.5224   58.6433   11.5781 H         1 UNK         0.0808 
     83 H83        18.1657   60.0047   12.6411 H         1 UNK         0.0808 
     84 H84        19.1509   60.2403   11.2064 H         1 UNK         0.0808 
     85 H85        20.3161   56.8499   11.9417 H         1 UNK         0.3181 
     86 H86        22.1643   57.2836    9.8050 H         1 UNK         0.0819 
     87 H87        21.0169   54.7107   10.9904 H         1 UNK         0.0823 
     88 H88        20.3339   55.6422    9.6586 H         1 UNK         0.0823 
     89 H89        21.8769   54.8231    9.4589 H         1 UNK         0.0823 
     90 H90        22.5240   55.5355   12.9482 H         1 UNK         0.3159 
     91 H91        25.4671   55.3441   12.4721 H         1 UNK         0.0870 
     92 H92        22.9637   56.1528   14.8617 H         1 UNK         0.3462 
     93 H93        24.1408   56.5353   16.0993 H         1 UNK         0.3462 
     94 H94        25.3579   53.0758   13.5972 H         1 UNK         0.0763 
     95 H95        23.6120   53.1651   13.5465 H         1 UNK         0.0763 
     96 H96        24.0002   50.5840   10.6888 H         1 UNK         0.0881 
     97 H97        24.2298   50.6836   12.4146 H         1 UNK         0.0881 
@<TRIPOS>BOND
     1    1    2 1    
     2    1   52 1    
     3    1   53 1    
     4    1   54 1    
     5    2    3 2    
     6    2    4 am   BACKBONE|DICT|INTERRES
     7    4    5 1    
     8    4   55 1    
     9    5    6 1    
    10    5   25 1    
    11    5   56 1    
    12    6    7 1    
    13    6   57 1    
    14    6   58 1    
    15    7    8 1    
    16    8    9 1    
    17    8   59 1    
    18    8   60 1    
    19    9   10 ar   
    20    9   14 ar   
    21   10   11 ar   
    22   10   61 1    
    23   11   12 ar   
    24   11   51 1    
    25   12   13 ar   
    26   12   62 1    
    27   13   14 ar   
    28   13   15 1    
    29   14   63 1    
    30   15   16 1    
    31   15   64 1    
    32   15   65 1    
    33   16   17 1    
    34   17   18 1    
    35   17   66 1    
    36   17   67 1    
    37   18   19 1    
    38   18   27 1    
    39   18   68 1    
    40   19   20 am   BACKBONE|DICT|INTERRES
    41   19   69 1    
    42   20   21 2    
    43   20   22 1    
    44   22   23 1    
    45   22   24 1    
    46   22   70 1    
    47   23   71 1    
    48   23   72 1    
    49   23   73 1    
    50   24   25 am   BACKBONE|DICT|INTERRES
    51   24   74 1    
    52   25   26 2    
    53   27   28 2    
    54   27   29 am   BACKBONE|DICT|INTERRES
    55   29   30 1    
    56   29   75 1    
    57   30   31 1    
    58   30   32 1    
    59   30   76 1    
    60   31   77 1    
    61   31   78 1    
    62   31   79 1    
    63   32   33 2    
    64   32   34 am   BACKBONE|DICT|INTERRES
    65   34   35 1    
    66   34   80 1    
    67   35   36 1    
    68   35   37 1    
    69   35   81 1    
    70   36   82 1    
    71   36   83 1    
    72   36   84 1    
    73   37   38 2    
    74   37   39 am   BACKBONE|DICT|INTERRES
    75   39   40 1    
    76   39   85 1    
    77   40   41 1    
    78   40   42 1    
    79   40   86 1    
    80   41   87 1    
    81   41   88 1    
    82   41   89 1    
    83   42   43 2    
    84   42   44 am   BACKBONE|DICT|INTERRES
    85   44   45 1    
    86   44   90 1    
    87   45   46 1    
    88   45   49 1    
    89   45   91 1    
    90   46   47 am   BACKBONE|DICT|INTERRES
    91   46   48 2    
    92   47   92 1    
    93   47   93 1    
    94   49   50 1    
    95   49   94 1    
    96   49   95 1    
    97   50   51 1    
    98   51   96 1    
    99   51   97 1    
@<TRIPOS>SUBSTRUCTURE
     1 UNK         1 GROUP             0       ****    0 ROOT    
