@<TRIPOS>MOLECULE
3R0
97   99    1
SMALL
USER_CHARGES


@<TRIPOS>ATOM
      1 CA         14.6035   49.5496    9.5223 C.3       0 UNK        -0.2006 
      2 C          15.0829   50.9564    9.1970 C.2       0 UNK         0.4864 
      3 O          14.8267   51.4509    8.0988 O.2       0 UNK        -0.5092 
      4 N          15.7742   51.5974   10.1444 N.am      1 UNK        -0.4825 
      5 CA         16.2761   52.9698   10.0519 C.3       1 UNK         0.0812 
      6 C6         17.8229   53.0400    9.9119 C.3       8 UNK        -0.0932 
      7 S7         18.5439   52.1079    8.5175 S.3       8 UNK        -0.2545 
      8 C8         18.9457   50.4873    9.2595 C.3       8 UNK         0.0228 
      9 C9         19.8099   50.5936   10.5101 C.ar      8 UNK        -0.0842 
     10 C10        21.1854   50.8210   10.4122 C.ar      8 UNK        -0.0874 
     11 C11        21.9751   50.9091   11.5645 C.ar      8 UNK        -0.0867 
     12 C12        21.3750   50.7908   12.8234 C.ar      8 UNK        -0.1042 
     13 C13        20.0008   50.5516   12.9316 C.ar      8 UNK        -0.0824 
     14 C14        19.2294   50.4424   11.7720 C.ar      8 UNK        -0.1194 
     15 C15        19.3448   50.3562   14.2912 C.3       8 UNK         0.0180 
     16 S16        18.1060   51.6427   14.6526 S.3       8 UNK        -0.2273 
     17 C17        19.1464   53.0338   15.2048 C.3       8 UNK        -0.0981 
     18 CA         19.2016   54.2034   14.1917 C.3       3 UNK         0.0747 
     19 N          17.8635   54.6858   13.8117 N.am      3 UNK        -0.4794 
     20 C          17.5822   55.7447   13.0390 C.2       2 UNK         0.5067 
     21 O          18.4200   56.5582   12.6473 O.2       2 UNK        -0.4802 
     22 CA         16.1327   55.8560   12.5389 C.3       2 UNK         0.0370 
     23 CB         15.7423   57.3089   12.2135 C.3       2 UNK        -0.1774 
     24 N          16.0209   55.0410   11.3292 N.am      2 UNK        -0.4750 
     25 C          15.8713   53.7100   11.3391 C.2       1 UNK         0.5001 
     26 O          15.5276   53.0718   12.3389 O.2       1 UNK        -0.4889 
     27 C          20.1307   55.3043   14.7338 C.2       3 UNK         0.4972 
     28 O          21.2817   55.3873   14.3081 O.2       3 UNK        -0.4802 
     29 N          19.6011   56.1521   15.6273 N.am      4 UNK        -0.4926 
     30 CA         20.3205   57.2605   16.2638 C.3       4 UNK         0.0426 
     31 CB         19.4419   57.8604   17.3726 C.3       4 UNK        -0.1835 
     32 C          20.7792   58.3619   15.2893 C.2       4 UNK         0.5138 
     33 O          21.7777   59.0264   15.5676 O.2       4 UNK        -0.5194 
     34 N          20.0549   58.5314   14.1759 N.am      5 UNK        -0.4222 
     35 CA         20.4024   59.4596   13.1007 C.3       5 UNK         0.0221 
     36 CB         19.1156   60.0320   12.4816 C.3       5 UNK        -0.2034 
     37 C          21.2592   58.7706   12.0288 C.2       5 UNK         0.4987 
     38 O          22.2218   59.3700   11.5488 O.2       5 UNK        -0.5478 
     39 N          20.8840   57.5377   11.6608 N.am      6 UNK        -0.4365 
     40 CA         21.5140   56.7519   10.5999 C.3       6 UNK         0.0273 
     41 CB         20.6033   55.5684   10.2331 C.3       6 UNK        -0.1956 
     42 C          22.9259   56.2583   10.9500 C.2       6 UNK         0.4962 
     43 O          23.8237   56.3768   10.1138 O.2       6 UNK        -0.5385 
     44 N          23.0877   55.7020   12.1556 N.am      7 UNK        -0.4054 
     45 CA         24.3217   55.0538   12.6262 C.3       7 UNK         0.0701 
     46 C          24.8223   55.6122   13.9828 C.2       7 UNK         0.5602 
     47 N          23.9636   56.1405   14.8439 N.am      7 UNK        -0.7339 
     48 O          26.0202   55.5801   14.2524 O.2       7 UNK        -0.5126 
     49 C49        24.1631   53.5106   12.6849 C.3       8 UNK        -0.0906 
     50 S50        23.9598   52.7787   11.0270 S.3       8 UNK        -0.2590 
     51 C51        23.4834   51.0727   11.4364 C.3       8 UNK         0.0201 
     52 H52        15.0124   48.8394    8.8041 H         1 UNK         0.0901 
     53 H53        13.5162   49.5015    9.4685 H         1 UNK         0.0901 
     54 H54        14.9084   49.2352   10.5203 H         1 UNK         0.0901 
     55 H55        15.8732   51.1869   11.0636 H         1 UNK         0.3005 
     56 H56        15.8109   53.4850    9.2082 H         1 UNK         0.1258 
     57 H57        18.3139   52.7516   10.8407 H         1 UNK         0.0713 
     58 H58        18.1190   54.0772    9.7538 H         1 UNK         0.0713 
     59 H59        18.0192   49.9570    9.4819 H         1 UNK         0.0869 
     60 H60        19.4623   49.8809    8.5143 H         1 UNK         0.0869 
     61 H61        21.6437   50.9209    9.4375 H         1 UNK         0.1451 
     62 H62        21.9822   50.8548   13.7161 H         1 UNK         0.1348 
     63 H63        18.1682   50.2517   11.8560 H         1 UNK         0.1248 
     64 H64        18.8460   49.3861   14.2990 H         1 UNK         0.0802 
     65 H65        20.0868   50.3185   15.0901 H         1 UNK         0.0802 
     66 H66        20.1526   52.6659   15.4159 H         1 UNK         0.0831 
     67 H67        18.7467   53.3762   16.1615 H         1 UNK         0.0831 
     68 H68        19.6641   53.8269   13.2762 H         1 UNK         0.1266 
     69 H69        17.1062   54.0506   14.0269 H         1 UNK         0.2858 
     70 H70        15.4582   55.4854   13.3139 H         1 UNK         0.0493 
     71 H71        16.3603   57.7329   11.4210 H         1 UNK         0.0858 
     72 H72        14.7017   57.3763   11.8961 H         1 UNK         0.0858 
     73 H73        15.8554   57.9477   13.0903 H         1 UNK         0.0858 
     74 H74        16.3195   55.4869   10.4730 H         1 UNK         0.2998 
     75 H75        18.6363   56.0190   15.8962 H         1 UNK         0.2942 
     76 H76        21.2177   56.8463   16.7288 H         1 UNK         0.0588 
     77 H77        19.9609   58.6714   17.8859 H         1 UNK         0.0836 
     78 H78        19.1874   57.1149   18.1260 H         1 UNK         0.0836 
     79 H79        18.5122   58.2695   16.9751 H         1 UNK         0.0836 
     80 H80        19.2782   57.9045   14.0050 H         1 UNK         0.3003 
     81 H81        20.9796   60.2942   13.5057 H         1 UNK         0.0959 
     82 H82        18.5233   60.5659   13.2248 H         1 UNK         0.0808 
     83 H83        19.3490   60.7393   11.6846 H         1 UNK         0.0808 
     84 H84        18.4868   59.2520   12.0508 H         1 UNK         0.0808 
     85 H85        20.0441   57.1439   12.0797 H         1 UNK         0.3181 
     86 H86        21.5999   57.3931    9.7199 H         1 UNK         0.0819 
     87 H87        20.4332   54.9058   11.0824 H         1 UNK         0.0823 
     88 H88        19.6336   55.9179    9.8795 H         1 UNK         0.0823 
     89 H89        21.0422   54.9668    9.4357 H         1 UNK         0.0823 
     90 H90        22.3050   55.6699   12.8019 H         1 UNK         0.3159 
     91 H91        25.1304   55.2732   11.9268 H         1 UNK         0.0870 
     92 H92        22.9659   56.0787   14.6775 H         1 UNK         0.3462 
     93 H93        24.3078   56.5151   15.7131 H         1 UNK         0.3462 
     94 H94        25.0394   53.0471   13.1427 H         1 UNK         0.0763 
     95 H95        23.3072   53.2387   13.3060 H         1 UNK         0.0763 
     96 H96        23.9907   50.7524   12.3479 H         1 UNK         0.0881 
     97 H97        23.8462   50.4129   10.6468 H         1 UNK         0.0881 
@<TRIPOS>BOND
     1    1    2 1    
     2    1   52 1    
     3    1   53 1    
     4    1   54 1    
     5    2    3 2    
     6    2    4 am   BACKBONE|DICT|INTERRES
     7    4    5 1    
     8    4   55 1    
     9    5    6 1    
    10    5   25 1    
    11    5   56 1    
    12    6    7 1    
    13    6   57 1    
    14    6   58 1    
    15    7    8 1    
    16    8    9 1    
    17    8   59 1    
    18    8   60 1    
    19    9   10 ar   
    20    9   14 ar   
    21   10   11 ar   
    22   10   61 1    
    23   11   12 ar   
    24   11   51 1    
    25   12   13 ar   
    26   12   62 1    
    27   13   14 ar   
    28   13   15 1    
    29   14   63 1    
    30   15   16 1    
    31   15   64 1    
    32   15   65 1    
    33   16   17 1    
    34   17   18 1    
    35   17   66 1    
    36   17   67 1    
    37   18   19 1    
    38   18   27 1    
    39   18   68 1    
    40   19   20 am   BACKBONE|DICT|INTERRES
    41   19   69 1    
    42   20   21 2    
    43   20   22 1    
    44   22   23 1    
    45   22   24 1    
    46   22   70 1    
    47   23   71 1    
    48   23   72 1    
    49   23   73 1    
    50   24   25 am   BACKBONE|DICT|INTERRES
    51   24   74 1    
    52   25   26 2    
    53   27   28 2    
    54   27   29 am   BACKBONE|DICT|INTERRES
    55   29   30 1    
    56   29   75 1    
    57   30   31 1    
    58   30   32 1    
    59   30   76 1    
    60   31   77 1    
    61   31   78 1    
    62   31   79 1    
    63   32   33 2    
    64   32   34 am   BACKBONE|DICT|INTERRES
    65   34   35 1    
    66   34   80 1    
    67   35   36 1    
    68   35   37 1    
    69   35   81 1    
    70   36   82 1    
    71   36   83 1    
    72   36   84 1    
    73   37   38 2    
    74   37   39 am   BACKBONE|DICT|INTERRES
    75   39   40 1    
    76   39   85 1    
    77   40   41 1    
    78   40   42 1    
    79   40   86 1    
    80   41   87 1    
    81   41   88 1    
    82   41   89 1    
    83   42   43 2    
    84   42   44 am   BACKBONE|DICT|INTERRES
    85   44   45 1    
    86   44   90 1    
    87   45   46 1    
    88   45   49 1    
    89   45   91 1    
    90   46   47 am   BACKBONE|DICT|INTERRES
    91   46   48 2    
    92   47   92 1    
    93   47   93 1    
    94   49   50 1    
    95   49   94 1    
    96   49   95 1    
    97   50   51 1    
    98   51   96 1    
    99   51   97 1    
@<TRIPOS>SUBSTRUCTURE
     1 UNK         1 GROUP             0       ****    0 ROOT    
