@<TRIPOS>MOLECULE
3R0
97   99    1
SMALL
USER_CHARGES


@<TRIPOS>ATOM
      1 CA         16.5498   52.6690    5.6075 C.3       0 UNK        -0.2006 
      2 C          17.4019   53.2303    6.7362 C.2       0 UNK         0.4864 
      3 O          18.4546   53.8137    6.4770 O.2       0 UNK        -0.5092 
      4 N          16.9524   53.0632    7.9826 N.am      1 UNK        -0.4825 
      5 CA         17.6215   53.5322    9.1951 C.3       1 UNK         0.0812 
      6 C6         18.7827   52.6018    9.6436 C.3       8 UNK        -0.0932 
      7 S7         18.3201   50.8546    9.8957 S.3       8 UNK        -0.2545 
      8 C8         19.9340   50.1275   10.3376 C.3       8 UNK         0.0228 
      9 C9         20.4174   50.5463   11.7223 C.ar      8 UNK        -0.0842 
     10 C10        21.6796   51.1269   11.8871 C.ar      8 UNK        -0.0874 
     11 C11        22.1330   51.4951   13.1590 C.ar      8 UNK        -0.0867 
     12 C12        21.3174   51.2708   14.2721 C.ar      8 UNK        -0.1042 
     13 C13        20.0544   50.6926   14.1202 C.ar      8 UNK        -0.0824 
     14 C14        19.6158   50.3236   12.8459 C.ar      8 UNK        -0.1194 
     15 C15        19.1587   50.4598   15.3272 C.3       8 UNK         0.0180 
     16 S16        17.7650   51.6305   15.3612 S.3       8 UNK        -0.2273 
     17 C17        18.5637   53.1764   15.9189 C.3       8 UNK        -0.0981 
     18 CA         19.0893   54.0849   14.7657 C.3       3 UNK         0.0747 
     19 N          18.1227   54.2942   13.6804 N.am      3 UNK        -0.4794 
     20 C          16.8929   54.8208   13.7637 C.2       2 UNK         0.5067 
     21 O          16.3879   55.2340   14.8084 O.2       2 UNK        -0.4802 
     22 CA         16.0693   54.8629   12.4619 C.3       2 UNK         0.0370 
     23 CB         15.3390   56.2042   12.2682 C.3       2 UNK        -0.1774 
     24 N          16.8917   54.5733   11.2826 N.am      2 UNK        -0.4750 
     25 C          16.5618   53.7384   10.2921 C.2       1 UNK         0.5001 
     26 O          15.4806   53.1456   10.2199 O.2       1 UNK        -0.4889 
     27 C          19.6898   55.4094   15.2921 C.2       3 UNK         0.4972 
     28 O          19.3876   56.4868   14.7727 O.2       3 UNK        -0.4802 
     29 N          20.5620   55.3061   16.3084 N.am      4 UNK        -0.4926 
     30 CA         21.3174   56.3978   16.9353 C.3       4 UNK         0.0426 
     31 CB         20.3761   57.3505   17.7092 C.3       4 UNK        -0.1835 
     32 C          22.2314   57.0979   15.9105 C.2       4 UNK         0.5138 
     33 O          23.2197   56.4970   15.4894 O.2       4 UNK        -0.5194 
     34 N          21.8893   58.3308   15.5160 N.am      5 UNK        -0.4222 
     35 CA         22.5764   59.0744   14.4575 C.3       5 UNK         0.0221 
     36 CB         22.3656   60.5808   14.6874 C.3       5 UNK        -0.2034 
     37 C          22.1049   58.6805   13.0451 C.2       5 UNK         0.4987 
     38 O          22.8372   58.9168   12.0832 O.2       5 UNK        -0.5478 
     39 N          20.9007   58.1050   12.9260 N.am      6 UNK        -0.4365 
     40 CA         20.2438   57.7745   11.6625 C.3       6 UNK         0.0273 
     41 CB         18.7539   58.1476   11.7700 C.3       6 UNK        -0.1956 
     42 C          20.4542   56.2945   11.3086 C.2       6 UNK         0.4962 
     43 O          19.4817   55.5609   11.1219 O.2       6 UNK        -0.5385 
     44 N          21.7212   55.8782   11.2182 N.am      7 UNK        -0.4054 
     45 CA         22.1222   54.5285   10.7868 C.3       7 UNK         0.0701 
     46 C          22.0587   54.2969    9.2499 C.2       7 UNK         0.5602 
     47 N          21.7572   55.2961    8.4304 N.am      7 UNK        -0.7339 
     48 O          22.2777   53.1788    8.7921 O.2       7 UNK        -0.5126 
     49 C49        23.5066   54.1317   11.3596 C.3       8 UNK        -0.0906 
     50 S50        23.4674   53.9300   13.1710 S.3       8 UNK        -0.2590 
     51 C51        23.5103   52.1166   13.3438 C.3       8 UNK         0.0201 
     52 H52        17.1208   51.9386    5.0349 H         1 UNK         0.0901 
     53 H53        16.2453   53.4689    4.9332 H         1 UNK         0.0901 
     54 H54        15.6508   52.1787    5.9809 H         1 UNK         0.0901 
     55 H55        16.0639   52.6109    8.1614 H         1 UNK         0.3005 
     56 H56        18.0424   54.5186    8.9831 H         1 UNK         0.1258 
     57 H57        19.5710   52.6298    8.8910 H         1 UNK         0.0713 
     58 H58        19.2357   52.9722   10.5636 H         1 UNK         0.0713 
     59 H59        19.8455   49.0406   10.3147 H         1 UNK         0.0869 
     60 H60        20.6643   50.3916    9.5707 H         1 UNK         0.0869 
     61 H61        22.3109   51.2917   11.0245 H         1 UNK         0.1451 
     62 H62        21.6645   51.5531   15.2568 H         1 UNK         0.1348 
     63 H63        18.6400   49.8721   12.7269 H         1 UNK         0.1248 
     64 H64        18.7614   49.4446   15.2850 H         1 UNK         0.0802 
     65 H65        19.7232   50.5255   16.2585 H         1 UNK         0.0802 
     66 H66        19.3684   52.9101   16.6054 H         1 UNK         0.0831 
     67 H67        17.8322   53.7196   16.5199 H         1 UNK         0.0831 
     68 H68        19.9248   53.5743   14.2883 H         1 UNK         0.1266 
     69 H69        18.4439   54.0136   12.7657 H         1 UNK         0.2858 
     70 H70        15.3126   54.0844   12.5771 H         1 UNK         0.0493 
     71 H71        16.0357   57.0336   12.1574 H         1 UNK         0.0858 
     72 H72        14.7032   56.1823   11.3832 H         1 UNK         0.0858 
     73 H73        14.6957   56.4298   13.1194 H         1 UNK         0.0858 
     74 H74        17.8094   55.0235   11.2528 H         1 UNK         0.2998 
     75 H75        20.7904   54.3830   16.6496 H         1 UNK         0.2942 
     76 H76        21.9817   55.9343   17.6668 H         1 UNK         0.0588 
     77 H77        20.9395   58.1439   18.2024 H         1 UNK         0.0836 
     78 H78        19.8379   56.8127   18.4901 H         1 UNK         0.0836 
     79 H79        19.6306   57.8221   17.0680 H         1 UNK         0.0836 
     80 H80        21.0576   58.7490   15.9078 H         1 UNK         0.3003 
     81 H81        23.6484   58.8689   14.5138 H         1 UNK         0.0959 
     82 H82        22.7506   60.8918   15.6588 H         1 UNK         0.0808 
     83 H83        22.8889   61.1678   13.9306 H         1 UNK         0.0808 
     84 H84        21.3104   60.8545   14.6396 H         1 UNK         0.0808 
     85 H85        20.3991   57.8198   13.7631 H         1 UNK         0.3181 
     86 H86        20.6718   58.3641   10.8490 H         1 UNK         0.0819 
     87 H87        18.2648   57.6019   12.5769 H         1 UNK         0.0823 
     88 H88        18.6255   59.2128   11.9618 H         1 UNK         0.0823 
     89 H89        18.2214   57.9185   10.8458 H         1 UNK         0.0823 
     90 H90        22.4647   56.5393   11.3951 H         1 UNK         0.3159 
     91 H91        21.3928   53.8292   11.1965 H         1 UNK         0.0870 
     92 H92        21.7074   55.1176    7.4398 H         1 UNK         0.3462 
     93 H93        21.5733   56.2194    8.7856 H         1 UNK         0.3462 
     94 H94        23.8713   53.2052   10.9131 H         1 UNK         0.0763 
     95 H95        24.2517   54.8894   11.1112 H         1 UNK         0.0763 
     96 H96        23.8917   51.8751   14.3372 H         1 UNK         0.0881 
     97 H97        24.2245   51.6834   12.6420 H         1 UNK         0.0881 
@<TRIPOS>BOND
     1    1    2 1    
     2    1   52 1    
     3    1   53 1    
     4    1   54 1    
     5    2    3 2    
     6    2    4 am   BACKBONE|DICT|INTERRES
     7    4    5 1    
     8    4   55 1    
     9    5    6 1    
    10    5   25 1    
    11    5   56 1    
    12    6    7 1    
    13    6   57 1    
    14    6   58 1    
    15    7    8 1    
    16    8    9 1    
    17    8   59 1    
    18    8   60 1    
    19    9   10 ar   
    20    9   14 ar   
    21   10   11 ar   
    22   10   61 1    
    23   11   12 ar   
    24   11   51 1    
    25   12   13 ar   
    26   12   62 1    
    27   13   14 ar   
    28   13   15 1    
    29   14   63 1    
    30   15   16 1    
    31   15   64 1    
    32   15   65 1    
    33   16   17 1    
    34   17   18 1    
    35   17   66 1    
    36   17   67 1    
    37   18   19 1    
    38   18   27 1    
    39   18   68 1    
    40   19   20 am   BACKBONE|DICT|INTERRES
    41   19   69 1    
    42   20   21 2    
    43   20   22 1    
    44   22   23 1    
    45   22   24 1    
    46   22   70 1    
    47   23   71 1    
    48   23   72 1    
    49   23   73 1    
    50   24   25 am   BACKBONE|DICT|INTERRES
    51   24   74 1    
    52   25   26 2    
    53   27   28 2    
    54   27   29 am   BACKBONE|DICT|INTERRES
    55   29   30 1    
    56   29   75 1    
    57   30   31 1    
    58   30   32 1    
    59   30   76 1    
    60   31   77 1    
    61   31   78 1    
    62   31   79 1    
    63   32   33 2    
    64   32   34 am   BACKBONE|DICT|INTERRES
    65   34   35 1    
    66   34   80 1    
    67   35   36 1    
    68   35   37 1    
    69   35   81 1    
    70   36   82 1    
    71   36   83 1    
    72   36   84 1    
    73   37   38 2    
    74   37   39 am   BACKBONE|DICT|INTERRES
    75   39   40 1    
    76   39   85 1    
    77   40   41 1    
    78   40   42 1    
    79   40   86 1    
    80   41   87 1    
    81   41   88 1    
    82   41   89 1    
    83   42   43 2    
    84   42   44 am   BACKBONE|DICT|INTERRES
    85   44   45 1    
    86   44   90 1    
    87   45   46 1    
    88   45   49 1    
    89   45   91 1    
    90   46   47 am   BACKBONE|DICT|INTERRES
    91   46   48 2    
    92   47   92 1    
    93   47   93 1    
    94   49   50 1    
    95   49   94 1    
    96   49   95 1    
    97   50   51 1    
    98   51   96 1    
    99   51   97 1    
@<TRIPOS>SUBSTRUCTURE
     1 UNK         1 GROUP             0       ****    0 ROOT    
