@<TRIPOS>MOLECULE
3R0
97   99    1
SMALL
USER_CHARGES


@<TRIPOS>ATOM
      1 CA         21.3395   52.7376   13.7666 C.3       0 UNK        -0.2006 
      2 C          19.8629   52.4306   13.5792 C.2       0 UNK         0.4864 
      3 O          19.0872   53.3420   13.2910 O.2       0 UNK        -0.5092 
      4 N          19.4780   51.1590   13.7631 N.am      1 UNK        -0.4825 
      5 CA         18.1109   50.6241   13.6494 C.3       1 UNK         0.0812 
      6 C6         17.5658   50.6423   12.1909 C.3       8 UNK        -0.0932 
      7 S7         18.6522   49.7853   11.0034 S.3       8 UNK        -0.2545 
      8 C8         18.0777   50.4954    9.4260 C.3       8 UNK         0.0228 
      9 C9         18.4307   51.9710    9.3016 C.ar      8 UNK        -0.0842 
     10 C10        19.7523   52.3550    9.0652 C.ar      8 UNK        -0.0874 
     11 C11        20.0930   53.7061    8.9603 C.ar      8 UNK        -0.0867 
     12 C12        19.0970   54.6797    9.0984 C.ar      8 UNK        -0.1042 
     13 C13        17.7661   54.3094    9.3275 C.ar      8 UNK        -0.0824 
     14 C14        17.4404   52.9514    9.4168 C.ar      8 UNK        -0.1194 
     15 C15        16.6766   55.3749    9.4247 C.3       8 UNK         0.0180 
     16 S16        15.6036   55.1967   10.8913 S.3       8 UNK        -0.2273 
     17 C17        16.7216   55.7473   12.2188 C.3       8 UNK        -0.0981 
     18 CA         16.1223   55.5452   13.6351 C.3       3 UNK         0.0747 
     19 N          15.7872   54.1420   13.8948 N.am      3 UNK        -0.4794 
     20 C          15.0343   53.7026   14.9135 C.2       2 UNK         0.5067 
     21 O          14.4858   54.4454   15.7274 O.2       2 UNK        -0.4802 
     22 CA         14.8564   52.1776   15.0487 C.3       2 UNK         0.0370 
     23 CB         13.4575   51.7582   14.5696 C.3       2 UNK        -0.1774 
     24 N          15.8656   51.4185   14.3038 N.am      2 UNK        -0.4750 
     25 C          17.1519   51.2964   14.6640 C.2       1 UNK         0.5001 
     26 O          17.5872   51.7013   15.7452 O.2       1 UNK        -0.4889 
     27 C          17.0925   56.1072   14.6930 C.2       3 UNK         0.4972 
     28 O          17.0388   57.3023   14.9833 O.2       3 UNK        -0.4802 
     29 N          17.9796   55.2405   15.2115 N.am      4 UNK        -0.4926 
     30 CA         19.1472   55.5504   16.0475 C.3       4 UNK         0.0426 
     31 CB         18.7172   56.0810   17.4307 C.3       4 UNK        -0.1835 
     32 C          20.1380   56.4817   15.3173 C.2       4 UNK         0.5138 
     33 O          20.7154   57.3828   15.9295 O.2       4 UNK        -0.5194 
     34 N          20.2698   56.2692   14.0019 N.am      5 UNK        -0.4222 
     35 CA         21.0338   57.1148   13.0904 C.3       5 UNK         0.0221 
     36 CB         20.5144   56.8828   11.6621 C.3       5 UNK        -0.2034 
     37 C          22.5408   56.8354   13.1659 C.2       5 UNK         0.4987 
     38 O          22.9532   55.7021   13.4233 O.2       5 UNK        -0.5478 
     39 N          23.3420   57.8634   12.8639 N.am      6 UNK        -0.4365 
     40 CA         24.7893   57.7631   12.6732 C.3       6 UNK         0.0273 
     41 CB         25.4419   59.1081   13.0456 C.3       6 UNK        -0.1956 
     42 C          25.0782   57.3434   11.2213 C.2       6 UNK         0.4962 
     43 O          25.5256   58.1658   10.4188 O.2       6 UNK        -0.5385 
     44 N          24.7436   56.0885   10.9002 N.am      7 UNK        -0.4054 
     45 CA         24.8485   55.4872    9.5623 C.3       7 UNK         0.0701 
     46 C          26.2994   55.4659    9.0109 C.2       7 UNK         0.5602 
     47 N          26.4727   55.6578    7.7108 N.am      7 UNK        -0.7339 
     48 O          27.2601   55.2283    9.7409 O.2       7 UNK        -0.5126 
     49 C49        24.2417   54.0599    9.5261 C.3       8 UNK        -0.0906 
     50 S50        22.5452   53.9684   10.1903 S.3       8 UNK        -0.2590 
     51 C51        21.5379   54.0951    8.6826 C.3       8 UNK         0.0201 
     52 H52        21.4872   53.3614   14.6475 H         1 UNK         0.0901 
     53 H53        21.7171   53.2827   12.9034 H         1 UNK         0.0901 
     54 H54        21.9358   51.8331   13.8818 H         1 UNK         0.0901 
     55 H55        20.1750   50.4768   14.0261 H         1 UNK         0.3005 
     56 H56        18.1703   49.5808   13.9638 H         1 UNK         0.1258 
     57 H57        16.5940   50.1506   12.1256 H         1 UNK         0.0713 
     58 H58        17.4188   51.6727   11.8654 H         1 UNK         0.0713 
     59 H59        18.5361   49.9453    8.6030 H         1 UNK         0.0869 
     60 H60        17.0014   50.3428    9.3312 H         1 UNK         0.0869 
     61 H61        20.5207   51.5993    8.9729 H         1 UNK         0.1451 
     62 H62        19.3577   55.7259    9.0150 H         1 UNK         0.1348 
     63 H63        16.4132   52.6591    9.5860 H         1 UNK         0.1248 
     64 H64        16.0539   55.3104    8.5316 H         1 UNK         0.0802 
     65 H65        17.1089   56.3767    9.4237 H         1 UNK         0.0802 
     66 H66        16.9483   56.8016   12.0473 H         1 UNK         0.0831 
     67 H67        17.6660   55.2098   12.1167 H         1 UNK         0.0831 
     68 H68        15.2008   56.1281   13.7055 H         1 UNK         0.1266 
     69 H69        16.2024   53.4660   13.2712 H         1 UNK         0.2858 
     70 H70        14.9440   51.9270   16.1080 H         1 UNK         0.0493 
     71 H71        13.3053   51.9864   13.5139 H         1 UNK         0.0858 
     72 H72        13.2915   50.6902   14.7113 H         1 UNK         0.0858 
     73 H73        12.6808   52.2809   15.1297 H         1 UNK         0.0858 
     74 H74        15.5757   51.0444   13.4116 H         1 UNK         0.2998 
     75 H75        17.9572   54.2949   14.8443 H         1 UNK         0.2942 
     76 H76        19.6704   54.6058   16.2024 H         1 UNK         0.0588 
     77 H77        19.5777   56.1823   18.0930 H         1 UNK         0.0836 
     78 H78        18.0146   55.4026   17.9143 H         1 UNK         0.0836 
     79 H79        18.2451   57.0614   17.3624 H         1 UNK         0.0836 
     80 H80        19.8081   55.4616   13.6014 H         1 UNK         0.3003 
     81 H81        20.8591   58.1591   13.3599 H         1 UNK         0.0959 
     82 H82        19.4751   57.1954   11.5625 H         1 UNK         0.0808 
     83 H83        21.0936   57.4463   10.9294 H         1 UNK         0.0808 
     84 H84        20.5726   55.8299   11.3851 H         1 UNK         0.0808 
     85 H85        22.9231   58.7508   12.6223 H         1 UNK         0.3181 
     86 H86        25.2011   56.9974   13.3348 H         1 UNK         0.0819 
     87 H87        25.0670   59.9282   12.4318 H         1 UNK         0.0823 
     88 H88        25.2585   59.3609   14.0901 H         1 UNK         0.0823 
     89 H89        26.5232   59.0664   12.9084 H         1 UNK         0.0823 
     90 H90        24.3267   55.5067   11.6166 H         1 UNK         0.3159 
     91 H91        24.2568   56.1197    8.8983 H         1 UNK         0.0870 
     92 H92        27.4072   55.6295    7.3335 H         1 UNK         0.3462 
     93 H93        25.6927   55.8389    7.0981 H         1 UNK         0.3462 
     94 H94        24.8565   53.3762   10.1151 H         1 UNK         0.0763 
     95 H95        24.2500   53.6649    8.5085 H         1 UNK         0.0763 
     96 H96        21.9432   53.4403    7.9097 H         1 UNK         0.0881 
     97 H97        21.5984   55.1119    8.2916 H         1 UNK         0.0881 
@<TRIPOS>BOND
     1    1    2 1    
     2    1   52 1    
     3    1   53 1    
     4    1   54 1    
     5    2    3 2    
     6    2    4 am   BACKBONE|DICT|INTERRES
     7    4    5 1    
     8    4   55 1    
     9    5    6 1    
    10    5   25 1    
    11    5   56 1    
    12    6    7 1    
    13    6   57 1    
    14    6   58 1    
    15    7    8 1    
    16    8    9 1    
    17    8   59 1    
    18    8   60 1    
    19    9   10 ar   
    20    9   14 ar   
    21   10   11 ar   
    22   10   61 1    
    23   11   12 ar   
    24   11   51 1    
    25   12   13 ar   
    26   12   62 1    
    27   13   14 ar   
    28   13   15 1    
    29   14   63 1    
    30   15   16 1    
    31   15   64 1    
    32   15   65 1    
    33   16   17 1    
    34   17   18 1    
    35   17   66 1    
    36   17   67 1    
    37   18   19 1    
    38   18   27 1    
    39   18   68 1    
    40   19   20 am   BACKBONE|DICT|INTERRES
    41   19   69 1    
    42   20   21 2    
    43   20   22 1    
    44   22   23 1    
    45   22   24 1    
    46   22   70 1    
    47   23   71 1    
    48   23   72 1    
    49   23   73 1    
    50   24   25 am   BACKBONE|DICT|INTERRES
    51   24   74 1    
    52   25   26 2    
    53   27   28 2    
    54   27   29 am   BACKBONE|DICT|INTERRES
    55   29   30 1    
    56   29   75 1    
    57   30   31 1    
    58   30   32 1    
    59   30   76 1    
    60   31   77 1    
    61   31   78 1    
    62   31   79 1    
    63   32   33 2    
    64   32   34 am   BACKBONE|DICT|INTERRES
    65   34   35 1    
    66   34   80 1    
    67   35   36 1    
    68   35   37 1    
    69   35   81 1    
    70   36   82 1    
    71   36   83 1    
    72   36   84 1    
    73   37   38 2    
    74   37   39 am   BACKBONE|DICT|INTERRES
    75   39   40 1    
    76   39   85 1    
    77   40   41 1    
    78   40   42 1    
    79   40   86 1    
    80   41   87 1    
    81   41   88 1    
    82   41   89 1    
    83   42   43 2    
    84   42   44 am   BACKBONE|DICT|INTERRES
    85   44   45 1    
    86   44   90 1    
    87   45   46 1    
    88   45   49 1    
    89   45   91 1    
    90   46   47 am   BACKBONE|DICT|INTERRES
    91   46   48 2    
    92   47   92 1    
    93   47   93 1    
    94   49   50 1    
    95   49   94 1    
    96   49   95 1    
    97   50   51 1    
    98   51   96 1    
    99   51   97 1    
@<TRIPOS>SUBSTRUCTURE
     1 UNK         1 GROUP             0       ****    0 ROOT    
