@<TRIPOS>MOLECULE
3R0
97   99    1
SMALL
USER_CHARGES


@<TRIPOS>ATOM
      1 CA         14.7034   50.9593   13.0781 C.3       0 UNK        -0.2006 
      2 C          14.9139   51.7229   11.7801 C.2       0 UNK         0.4864 
      3 O          14.0379   52.4895   11.3791 O.2       0 UNK        -0.5092 
      4 N          16.0507   51.4995   11.1064 N.am      1 UNK        -0.4825 
      5 CA         16.3466   52.0518    9.7773 C.3       1 UNK         0.0812 
      6 C6         17.4647   51.2800    9.0228 C.3       8 UNK        -0.0932 
      7 S7         17.3124   49.4598    9.1820 S.3       8 UNK        -0.2545 
      8 C8         18.9902   48.8964    9.6455 C.3       8 UNK         0.0228 
      9 C9         19.6504   49.7527   10.7197 C.ar      8 UNK        -0.0842 
     10 C10        20.7250   50.5781   10.3791 C.ar      8 UNK        -0.0874 
     11 C11        21.3045   51.4242   11.3277 C.ar      8 UNK        -0.0867 
     12 C12        20.8275   51.4125   12.6410 C.ar      8 UNK        -0.1042 
     13 C13        19.7669   50.5756   13.0010 C.ar      8 UNK        -0.0824 
     14 C14        19.1835   49.7443   12.0374 C.ar      8 UNK        -0.1194 
     15 C15        19.2362   50.5770   14.4254 C.3       8 UNK         0.0180 
     16 S16        17.7546   51.6223   14.5520 S.3       8 UNK        -0.2273 
     17 C17        18.3400   53.0727   15.4882 C.3       8 UNK        -0.0981 
     18 CA         19.0585   54.1473   14.6333 C.3       3 UNK         0.0747 
     19 N          18.3456   54.4713   13.3907 N.am      3 UNK        -0.4794 
     20 C          18.8257   55.2387   12.4004 C.2       2 UNK         0.5067 
     21 O          19.8896   55.8592   12.4698 O.2       2 UNK        -0.4802 
     22 CA         17.9844   55.2805   11.1151 C.3       2 UNK         0.0370 
     23 CB         18.7195   55.9673    9.9438 C.3       2 UNK        -0.1774 
     24 N          17.5762   53.9158   10.7719 N.am      2 UNK        -0.4750 
     25 C          16.6622   53.5584    9.8597 C.2       1 UNK         0.5001 
     26 O          16.0608   54.3508    9.1334 O.2       1 UNK        -0.4889 
     27 C          19.3533   55.3878   15.4958 C.2       3 UNK         0.4972 
     28 O          20.4402   55.4839   16.0636 O.2       3 UNK        -0.4802 
     29 N          18.4006   56.3315   15.5440 N.am      4 UNK        -0.4926 
     30 CA         18.5006   57.5891   16.2958 C.3       4 UNK         0.0426 
     31 CB         17.1378   58.2990   16.2810 C.3       4 UNK        -0.1835 
     32 C          19.6037   58.5319   15.7799 C.2       4 UNK         0.5138 
     33 O          20.1720   59.2881   16.5681 O.2       4 UNK        -0.5194 
     34 N          19.8972   58.4484   14.4764 N.am      5 UNK        -0.4222 
     35 CA         20.9876   59.1647   13.8129 C.3       5 UNK         0.0221 
     36 CB         20.5159   59.5659   12.4036 C.3       5 UNK        -0.2034 
     37 C          22.2720   58.3208   13.7206 C.2       5 UNK         0.4987 
     38 O          23.2703   58.8186   13.1986 O.2       5 UNK        -0.5478 
     39 N          22.2168   57.0495   14.1535 N.am      6 UNK        -0.4365 
     40 CA         23.2386   56.0032   14.0022 C.3       6 UNK         0.0273 
     41 CB         24.4370   56.2849   14.9321 C.3       6 UNK        -0.1956 
     42 C          23.6629   55.7756   12.5347 C.2       6 UNK         0.4962 
     43 O          24.8179   55.4291   12.2794 O.2       6 UNK        -0.5385 
     44 N          22.7275   56.0072   11.6018 N.am      7 UNK        -0.4054 
     45 CA         22.9431   56.0740   10.1461 C.3       7 UNK         0.0701 
     46 C          23.9260   57.1917    9.6787 C.2       7 UNK         0.5602 
     47 N          24.2132   58.2100   10.4809 N.am      7 UNK        -0.7339 
     48 O          24.4110   57.1637    8.5502 O.2       7 UNK        -0.5126 
     49 C49        23.2465   54.6841    9.5177 C.3       8 UNK        -0.0906 
     50 S50        21.8231   53.5620    9.6845 S.3       8 UNK        -0.2590 
     51 C51        22.4241   52.3679   10.9169 C.3       8 UNK         0.0201 
     52 H52        13.7296   50.4705   13.0719 H         1 UNK         0.0901 
     53 H53        14.7354   51.6423   13.9264 H         1 UNK         0.0901 
     54 H54        15.4618   50.1905   13.2242 H         1 UNK         0.0901 
     55 H55        16.7364   50.8536   11.4720 H         1 UNK         0.3005 
     56 H56        15.4355   51.9532    9.1818 H         1 UNK         0.1258 
     57 H57        18.4481   51.6059    9.3570 H         1 UNK         0.0713 
     58 H58        17.4285   51.5267    7.9604 H         1 UNK         0.0713 
     59 H59        19.6060   48.8713    8.7451 H         1 UNK         0.0869 
     60 H60        18.9307   47.8651    9.9959 H         1 UNK         0.0869 
     61 H61        21.0887   50.5968    9.3605 H         1 UNK         0.1451 
     62 H62        21.2785   52.0584   13.3805 H         1 UNK         0.1348 
     63 H63        18.3540   49.1050   12.3080 H         1 UNK         0.1248 
     64 H64        18.9752   49.5593   14.7191 H         1 UNK         0.0802 
     65 H65        20.0041   50.9075   15.1262 H         1 UNK         0.0802 
     66 H66        18.9857   52.7330   16.3005 H         1 UNK         0.0831 
     67 H67        17.4598   53.5022   15.9712 H         1 UNK         0.0831 
     68 H68        20.0285   53.7443   14.3386 H         1 UNK         0.1266 
     69 H69        17.4569   54.0097   13.2617 H         1 UNK         0.2858 
     70 H70        17.0875   55.8582   11.3453 H         1 UNK         0.0493 
     71 H71        19.5964   55.4012    9.6350 H         1 UNK         0.0858 
     72 H72        19.0554   56.9671   10.2208 H         1 UNK         0.0858 
     73 H73        18.0755   56.0831    9.0729 H         1 UNK         0.0858 
     74 H74        18.0211   53.1834   11.3103 H         1 UNK         0.2998 
     75 H75        17.5431   56.1691   15.0345 H         1 UNK         0.2942 
     76 H76        18.7430   57.3391   17.3309 H         1 UNK         0.0588 
     77 H77        16.8252   58.5554   15.2680 H         1 UNK         0.0836 
     78 H78        17.1752   59.2265   16.8544 H         1 UNK         0.0836 
     79 H79        16.3608   57.6776   16.7264 H         1 UNK         0.0836 
     80 H80        19.3849   57.7837   13.9128 H         1 UNK         0.3003 
     81 H81        21.2317   60.0733   14.3677 H         1 UNK         0.0959 
     82 H82        20.2893   58.6933   11.7895 H         1 UNK         0.0808 
     83 H83        19.6216   60.1877   12.4468 H         1 UNK         0.0808 
     84 H84        21.2821   60.1410   11.8816 H         1 UNK         0.0808 
     85 H85        21.3584   56.7401   14.5924 H         1 UNK         0.3181 
     86 H86        22.7742   55.0720   14.3298 H         1 UNK         0.0819 
     87 H87        24.9818   57.1791   14.6274 H         1 UNK         0.0823 
     88 H88        25.1439   55.4544   14.9249 H         1 UNK         0.0823 
     89 H89        24.1135   56.4237   15.9636 H         1 UNK         0.0823 
     90 H90        21.7844   56.2145   11.9144 H         1 UNK         0.3159 
     91 H91        21.9886   56.4056    9.7372 H         1 UNK         0.0870 
     92 H92        24.8399   58.9262   10.1512 H         1 UNK         0.3462 
     93 H93        23.8336   58.2737   11.4210 H         1 UNK         0.3462 
     94 H94        23.4459   54.7740    8.4486 H         1 UNK         0.0763 
     95 H95        24.1415   54.2385    9.9543 H         1 UNK         0.0763 
     96 H96        22.8160   52.9054   11.7814 H         1 UNK         0.0881 
     97 H97        23.2531   51.7948   10.4994 H         1 UNK         0.0881 
@<TRIPOS>BOND
     1    1    2 1    
     2    1   52 1    
     3    1   53 1    
     4    1   54 1    
     5    2    3 2    
     6    2    4 am   BACKBONE|DICT|INTERRES
     7    4    5 1    
     8    4   55 1    
     9    5    6 1    
    10    5   25 1    
    11    5   56 1    
    12    6    7 1    
    13    6   57 1    
    14    6   58 1    
    15    7    8 1    
    16    8    9 1    
    17    8   59 1    
    18    8   60 1    
    19    9   10 ar   
    20    9   14 ar   
    21   10   11 ar   
    22   10   61 1    
    23   11   12 ar   
    24   11   51 1    
    25   12   13 ar   
    26   12   62 1    
    27   13   14 ar   
    28   13   15 1    
    29   14   63 1    
    30   15   16 1    
    31   15   64 1    
    32   15   65 1    
    33   16   17 1    
    34   17   18 1    
    35   17   66 1    
    36   17   67 1    
    37   18   19 1    
    38   18   27 1    
    39   18   68 1    
    40   19   20 am   BACKBONE|DICT|INTERRES
    41   19   69 1    
    42   20   21 2    
    43   20   22 1    
    44   22   23 1    
    45   22   24 1    
    46   22   70 1    
    47   23   71 1    
    48   23   72 1    
    49   23   73 1    
    50   24   25 am   BACKBONE|DICT|INTERRES
    51   24   74 1    
    52   25   26 2    
    53   27   28 2    
    54   27   29 am   BACKBONE|DICT|INTERRES
    55   29   30 1    
    56   29   75 1    
    57   30   31 1    
    58   30   32 1    
    59   30   76 1    
    60   31   77 1    
    61   31   78 1    
    62   31   79 1    
    63   32   33 2    
    64   32   34 am   BACKBONE|DICT|INTERRES
    65   34   35 1    
    66   34   80 1    
    67   35   36 1    
    68   35   37 1    
    69   35   81 1    
    70   36   82 1    
    71   36   83 1    
    72   36   84 1    
    73   37   38 2    
    74   37   39 am   BACKBONE|DICT|INTERRES
    75   39   40 1    
    76   39   85 1    
    77   40   41 1    
    78   40   42 1    
    79   40   86 1    
    80   41   87 1    
    81   41   88 1    
    82   41   89 1    
    83   42   43 2    
    84   42   44 am   BACKBONE|DICT|INTERRES
    85   44   45 1    
    86   44   90 1    
    87   45   46 1    
    88   45   49 1    
    89   45   91 1    
    90   46   47 am   BACKBONE|DICT|INTERRES
    91   46   48 2    
    92   47   92 1    
    93   47   93 1    
    94   49   50 1    
    95   49   94 1    
    96   49   95 1    
    97   50   51 1    
    98   51   96 1    
    99   51   97 1    
@<TRIPOS>SUBSTRUCTURE
     1 UNK         1 GROUP             0       ****    0 ROOT    
