@<TRIPOS>MOLECULE
3R0
97   99    1
SMALL
USER_CHARGES


@<TRIPOS>ATOM
      1 CA         16.0511   53.3199    6.7857 C.3       0 UNK        -0.2006 
      2 C          16.9031   53.1051    8.0273 C.2       0 UNK         0.4864 
      3 O          17.9562   53.7273    8.1605 O.2       0 UNK        -0.5092 
      4 N          16.4520   52.2340    8.9385 N.am      1 UNK        -0.4825 
      5 CA         17.1120   51.8790   10.2022 C.3       1 UNK         0.0812 
      6 C6         16.6453   50.4808   10.6897 C.3       8 UNK        -0.0932 
      7 S7         17.3549   49.1585    9.6430 S.3       8 UNK        -0.2545 
      8 C8         18.5820   48.3567   10.7376 C.3       8 UNK         0.0228 
      9 C9         19.4242   49.3609   11.5134 C.ar      8 UNK        -0.0842 
     10 C10        20.3372   50.1869   10.8527 C.ar      8 UNK        -0.0874 
     11 C11        21.0204   51.1867   11.5525 C.ar      8 UNK        -0.0867 
     12 C12        20.8154   51.3333   12.9277 C.ar      8 UNK        -0.1042 
     13 C13        19.9210   50.4963   13.6004 C.ar      8 UNK        -0.0824 
     14 C14        19.2401   49.5046   12.8909 C.ar      8 UNK        -0.1194 
     15 C15        19.6414   50.6819   15.0822 C.3       8 UNK         0.0180 
     16 S16        18.0660   51.5640   15.3181 S.3       8 UNK        -0.2273 
     17 C17        18.6099   53.1225   16.0864 C.3       8 UNK        -0.0981 
     18 CA         19.1913   54.1532   15.0869 C.3       3 UNK         0.0747 
     19 N          18.2887   54.4386   13.9619 N.am      3 UNK        -0.4794 
     20 C          18.5582   55.2542   12.9332 C.2       2 UNK         0.5067 
     21 O          19.6021   55.9029   12.8248 O.2       2 UNK        -0.4802 
     22 CA         17.4787   55.3504   11.8439 C.3       2 UNK         0.0370 
     23 CB         17.6567   56.5969   10.9584 C.3       2 UNK        -0.1774 
     24 N          17.5024   54.1626   10.9938 N.am      2 UNK        -0.4750 
     25 C          16.9145   52.9895   11.2585 C.2       1 UNK         0.5001 
     26 O          16.2221   52.7896   12.2584 O.2       1 UNK        -0.4889 
     27 C          19.6232   55.4182   15.8522 C.2       3 UNK         0.4972 
     28 O          20.7933   55.5351   16.2135 O.2       3 UNK        -0.4802 
     29 N          18.6859   56.3591   16.0440 N.am      4 UNK        -0.4926 
     30 CA         18.9021   57.6373   16.7337 C.3       4 UNK         0.0426 
     31 CB         17.5516   58.3480   16.9137 C.3       4 UNK        -0.1835 
     32 C          19.9073   58.5682   16.0288 C.2       4 UNK         0.5138 
     33 O          20.5572   59.3718   16.6981 O.2       4 UNK        -0.5194 
     34 N          20.0262   58.4278   14.7027 N.am      5 UNK        -0.4222 
     35 CA         20.9901   59.1409   13.8633 C.3       5 UNK         0.0221 
     36 CB         20.2753   59.5728   12.5699 C.3       5 UNK        -0.2034 
     37 C          22.2193   58.2771   13.5265 C.2       5 UNK         0.4987 
     38 O          23.0864   58.7468   12.7885 O.2       5 UNK        -0.5478 
     39 N          22.2500   57.0186   13.9984 N.am      6 UNK        -0.4365 
     40 CA         23.2029   55.9542   13.6482 C.3       6 UNK         0.0273 
     41 CB         24.5817   56.2380   14.2796 C.3       6 UNK        -0.1956 
     42 C          23.2856   55.6890   12.1282 C.2       6 UNK         0.4962 
     43 O          24.3523   55.3283   11.6267 O.2       6 UNK        -0.5385 
     44 N          22.1642   55.9067   11.4265 N.am      7 UNK        -0.4054 
     45 CA         22.0356   55.9304    9.9596 C.3       7 UNK         0.0701 
     46 C          22.8716   57.0361    9.2452 C.2       7 UNK         0.5602 
     47 N          23.3416   58.0704    9.9326 N.am      7 UNK        -0.7339 
     48 O          23.0688   56.9827    8.0337 O.2       7 UNK        -0.5126 
     49 C49        22.1969   54.5261    9.3130 C.3       8 UNK        -0.0906 
     50 S50        20.9250   53.3719    9.9168 S.3       8 UNK        -0.2590 
     51 C51        21.9290   52.1488   10.8081 C.3       8 UNK         0.0201 
     52 H52        15.1529   52.7028    6.7946 H         1 UNK         0.0901 
     53 H53        16.6234   53.0729    5.8920 H         1 UNK         0.0901 
     54 H54        15.7457   54.3637    6.7172 H         1 UNK         0.0901 
     55 H55        15.5723   51.7664    8.7718 H         1 UNK         0.3005 
     56 H56        18.1891   51.8287   10.0266 H         1 UNK         0.1258 
     57 H57        15.5570   50.4062   10.6611 H         1 UNK         0.0713 
     58 H58        16.9178   50.3065   11.7306 H         1 UNK         0.0713 
     59 H59        19.2353   47.7228   10.1366 H         1 UNK         0.0869 
     60 H60        18.0556   47.6884   11.4208 H         1 UNK         0.0869 
     61 H61        20.4711   50.0911    9.7834 H         1 UNK         0.1451 
     62 H62        21.3339   52.1136   13.4666 H         1 UNK         0.1348 
     63 H63        18.5266   48.8772   13.4078 H         1 UNK         0.1248 
     64 H64        19.5788   49.7075   15.5689 H         1 UNK         0.0802 
     65 H65        20.4626   51.2118   15.5667 H         1 UNK         0.0802 
     66 H66        19.3352   52.8879   16.8685 H         1 UNK         0.0831 
     67 H67        17.7440   53.5435   16.6014 H         1 UNK         0.0831 
     68 H68        20.0999   53.7313   14.6548 H         1 UNK         0.1266 
     69 H69        17.4341   53.8970   13.9283 H         1 UNK         0.2858 
     70 H70        16.5067   55.4261   12.3357 H         1 UNK         0.0493 
     71 H71        17.6488   57.5074   11.5588 H         1 UNK         0.0858 
     72 H72        18.5986   56.5747   10.4094 H         1 UNK         0.0858 
     73 H73        16.8499   56.6831   10.2306 H         1 UNK         0.0858 
     74 H74        18.0270   54.2304   10.1262 H         1 UNK         0.2998 
     75 H75        17.7533   56.1780   15.6996 H         1 UNK         0.2942 
     76 H76        19.3050   57.4147   17.7240 H         1 UNK         0.0588 
     77 H77        17.0831   58.5763   15.9555 H         1 UNK         0.0836 
     78 H78        17.6752   59.2911   17.4481 H         1 UNK         0.0836 
     79 H79        16.8560   57.7403   17.4927 H         1 UNK         0.0836 
     80 H80        19.4662   57.7219   14.2427 H         1 UNK         0.3003 
     81 H81        21.3506   60.0361   14.3746 H         1 UNK         0.0959 
     82 H82        19.9391   58.7136   11.9880 H         1 UNK         0.0808 
     83 H83        19.4057   60.1939   12.7853 H         1 UNK         0.0808 
     84 H84        20.9381   60.1585   11.9312 H         1 UNK         0.0808 
     85 H85        21.5066   56.7313   14.6238 H         1 UNK         0.3181 
     86 H86        22.8147   55.0371   14.0938 H         1 UNK         0.0819 
     87 H87        25.0530   57.1174   13.8393 H         1 UNK         0.0823 
     88 H88        24.4990   56.4034   15.3537 H         1 UNK         0.0823 
     89 H89        25.2610   55.3972   14.1341 H         1 UNK         0.0823 
     90 H90        21.3165   56.1294   11.9399 H         1 UNK         0.3159 
     91 H91        21.0079   56.2435    9.7762 H         1 UNK         0.0870 
     92 H92        23.8675   58.7783    9.4461 H         1 UNK         0.3462 
     93 H93        23.2018   58.1536   10.9352 H         1 UNK         0.3462 
     94 H94        23.1959   54.1250    9.4902 H         1 UNK         0.0763 
     95 H95        22.0810   54.5820    8.2293 H         1 UNK         0.0763 
     96 H96        22.5576   51.6031   10.1029 H         1 UNK         0.0881 
     97 H97        22.6014   52.6589   11.4997 H         1 UNK         0.0881 
@<TRIPOS>BOND
     1    1    2 1    
     2    1   52 1    
     3    1   53 1    
     4    1   54 1    
     5    2    3 2    
     6    2    4 am   BACKBONE|DICT|INTERRES
     7    4    5 1    
     8    4   55 1    
     9    5    6 1    
    10    5   25 1    
    11    5   56 1    
    12    6    7 1    
    13    6   57 1    
    14    6   58 1    
    15    7    8 1    
    16    8    9 1    
    17    8   59 1    
    18    8   60 1    
    19    9   10 ar   
    20    9   14 ar   
    21   10   11 ar   
    22   10   61 1    
    23   11   12 ar   
    24   11   51 1    
    25   12   13 ar   
    26   12   62 1    
    27   13   14 ar   
    28   13   15 1    
    29   14   63 1    
    30   15   16 1    
    31   15   64 1    
    32   15   65 1    
    33   16   17 1    
    34   17   18 1    
    35   17   66 1    
    36   17   67 1    
    37   18   19 1    
    38   18   27 1    
    39   18   68 1    
    40   19   20 am   BACKBONE|DICT|INTERRES
    41   19   69 1    
    42   20   21 2    
    43   20   22 1    
    44   22   23 1    
    45   22   24 1    
    46   22   70 1    
    47   23   71 1    
    48   23   72 1    
    49   23   73 1    
    50   24   25 am   BACKBONE|DICT|INTERRES
    51   24   74 1    
    52   25   26 2    
    53   27   28 2    
    54   27   29 am   BACKBONE|DICT|INTERRES
    55   29   30 1    
    56   29   75 1    
    57   30   31 1    
    58   30   32 1    
    59   30   76 1    
    60   31   77 1    
    61   31   78 1    
    62   31   79 1    
    63   32   33 2    
    64   32   34 am   BACKBONE|DICT|INTERRES
    65   34   35 1    
    66   34   80 1    
    67   35   36 1    
    68   35   37 1    
    69   35   81 1    
    70   36   82 1    
    71   36   83 1    
    72   36   84 1    
    73   37   38 2    
    74   37   39 am   BACKBONE|DICT|INTERRES
    75   39   40 1    
    76   39   85 1    
    77   40   41 1    
    78   40   42 1    
    79   40   86 1    
    80   41   87 1    
    81   41   88 1    
    82   41   89 1    
    83   42   43 2    
    84   42   44 am   BACKBONE|DICT|INTERRES
    85   44   45 1    
    86   44   90 1    
    87   45   46 1    
    88   45   49 1    
    89   45   91 1    
    90   46   47 am   BACKBONE|DICT|INTERRES
    91   46   48 2    
    92   47   92 1    
    93   47   93 1    
    94   49   50 1    
    95   49   94 1    
    96   49   95 1    
    97   50   51 1    
    98   51   96 1    
    99   51   97 1    
@<TRIPOS>SUBSTRUCTURE
     1 UNK         1 GROUP             0       ****    0 ROOT    
