@<TRIPOS>MOLECULE
3R0
97   99    1
SMALL
USER_CHARGES


@<TRIPOS>ATOM
      1 CA         13.2635   53.6279    8.2521 C.3       0 UNK        -0.2006 
      2 C          14.4581   54.3384    8.8701 C.2       0 UNK         0.4864 
      3 O          14.4008   55.5466    9.0994 O.2       0 UNK        -0.5092 
      4 N          15.5421   53.5982    9.1370 N.am      1 UNK        -0.4825 
      5 CA         16.7700   54.0991    9.7677 C.3       1 UNK         0.0812 
      6 C6         17.9551   53.1082    9.6069 C.3       8 UNK        -0.0932 
      7 S7         17.5611   51.4015   10.1299 S.3       8 UNK        -0.2545 
      8 C8         19.1704   50.5740    9.9353 C.3       8 UNK         0.0228 
      9 C9         20.0958   50.8308   11.1164 C.ar      8 UNK        -0.0842 
     10 C10        21.2717   51.5687   10.9548 C.ar      8 UNK        -0.0874 
     11 C11        22.1500   51.7671   12.0264 C.ar      8 UNK        -0.0867 
     12 C12        21.8210   51.2308   13.2802 C.ar      8 UNK        -0.1042 
     13 C13        20.6357   50.5114   13.4603 C.ar      8 UNK        -0.0824 
     14 C14        19.7884   50.2986   12.3703 C.ar      8 UNK        -0.1194 
     15 C15        20.2563   49.9800   14.8356 C.3       8 UNK         0.0180 
     16 S16        18.7358   50.7620   15.4699 S.3       8 UNK        -0.2273 
     17 C17        19.2617   52.4939   15.7198 C.3       8 UNK        -0.0981 
     18 CA         19.0774   53.3932   14.4638 C.3       3 UNK         0.0747 
     19 N          17.7442   53.3113   13.8505 N.am      3 UNK        -0.4794 
     20 C          16.5815   53.7411   14.3598 C.2       2 UNK         0.5067 
     21 O          16.4425   54.1187   15.5233 O.2       2 UNK        -0.4802 
     22 CA         15.3827   53.8132   13.3863 C.3       2 UNK         0.0370 
     23 CB         14.5398   55.0838   13.6207 C.3       2 UNK        -0.1774 
     24 N          15.7375   53.7032   11.9603 N.am      2 UNK        -0.4750 
     25 C          16.5656   54.4859   11.2458 C.2       1 UNK         0.5001 
     26 O          17.1832   55.4468   11.7098 O.2       1 UNK        -0.4889 
     27 C          19.5433   54.8511   14.7057 C.2       3 UNK         0.4972 
     28 O          20.4862   55.0674   15.4668 O.2       3 UNK        -0.4802 
     29 N          18.8866   55.8209   14.0526 N.am      4 UNK        -0.4926 
     30 CA         19.1709   57.2521   14.1324 C.3       4 UNK         0.0426 
     31 CB         17.8485   58.0192   14.2890 C.3       4 UNK        -0.1835 
     32 C          19.9231   57.7297   12.8842 C.2       4 UNK         0.5138 
     33 O          20.8251   58.5597   13.0059 O.2       4 UNK        -0.5194 
     34 N          19.5688   57.1860   11.7101 N.am      5 UNK        -0.4222 
     35 CA         20.2854   57.4103   10.4541 C.3       5 UNK         0.0221 
     36 CB         19.4826   56.8141    9.2875 C.3       5 UNK        -0.2034 
     37 C          21.6828   56.7793   10.5351 C.2       5 UNK         0.4987 
     38 O          21.7818   55.5831   10.8163 O.2       5 UNK        -0.5478 
     39 N          22.7269   57.5967   10.3418 N.am      6 UNK        -0.4365 
     40 CA         24.1644   57.2940   10.4474 C.3       6 UNK         0.0273 
     41 CB         24.5975   56.2292    9.4196 C.3       6 UNK        -0.1956 
     42 C          24.6444   56.9215   11.8650 C.2       6 UNK         0.4962 
     43 O          25.6632   57.4510   12.3112 O.2       6 UNK        -0.5385 
     44 N          23.9165   56.0278   12.5398 N.am      7 UNK        -0.4054 
     45 CA         24.1945   55.5440   13.8994 C.3       7 UNK         0.0701 
     46 C          23.7871   56.5236   15.0355 C.2       7 UNK         0.5602 
     47 N          23.0559   57.5996   14.7764 N.am      7 UNK        -0.7339 
     48 O          24.1729   56.3161   16.1832 O.2       7 UNK        -0.5126 
     49 C49        23.6024   54.1270   14.1190 C.3       8 UNK        -0.0906 
     50 S50        24.5275   52.8556   13.1928 S.3       8 UNK        -0.2590 
     51 C51        23.4404   52.5471   11.7571 C.3       8 UNK         0.0201 
     52 H52        13.4551   52.5661    8.0982 H         1 UNK         0.0901 
     53 H53        13.0210   54.0720    7.2870 H         1 UNK         0.0901 
     54 H54        12.3931   53.7249    8.9005 H         1 UNK         0.0901 
     55 H55        15.5409   52.6099    8.9234 H         1 UNK         0.3005 
     56 H56        17.0391   55.0227    9.2505 H         1 UNK         0.1258 
     57 H57        18.8343   53.4555   10.1543 H         1 UNK         0.0713 
     58 H58        18.2547   53.0741    8.5583 H         1 UNK         0.0713 
     59 H59        19.0016   49.4997    9.8498 H         1 UNK         0.0869 
     60 H60        19.6310   50.8835    8.9958 H         1 UNK         0.0869 
     61 H61        21.5154   51.9789    9.9838 H         1 UNK         0.1451 
     62 H62        22.4752   51.3735   14.1278 H         1 UNK         0.1348 
     63 H63        18.8750   49.7346   12.5038 H         1 UNK         0.1248 
     64 H64        20.0969   48.9030   14.7681 H         1 UNK         0.0802 
     65 H65        21.0647   50.1261   15.5536 H         1 UNK         0.0802 
     66 H66        20.3044   52.4937   16.0425 H         1 UNK         0.0831 
     67 H67        18.6891   52.8969   16.5567 H         1 UNK         0.0831 
     68 H68        19.7589   53.0317   13.6955 H         1 UNK         0.1266 
     69 H69        17.7331   52.9916   12.8926 H         1 UNK         0.2858 
     70 H70        14.7563   52.9492   13.6120 H         1 UNK         0.0493 
     71 H71        15.1275   55.9909   13.4764 H         1 UNK         0.0858 
     72 H72        13.6876   55.1259   12.9425 H         1 UNK         0.0858 
     73 H73        14.1435   55.1125   14.6364 H         1 UNK         0.0858 
     74 H74        15.3190   52.9242   11.4701 H         1 UNK         0.2998 
     75 H75        18.1461   55.5480   13.4138 H         1 UNK         0.2942 
     76 H76        19.7938   57.4656   15.0036 H         1 UNK         0.0588 
     77 H77        18.0267   59.0929   14.3611 H         1 UNK         0.0836 
     78 H78        17.3217   57.7161   15.1939 H         1 UNK         0.0836 
     79 H79        17.1800   57.8541   13.4428 H         1 UNK         0.0836 
     80 H80        18.8120   56.5105   11.6945 H         1 UNK         0.3003 
     81 H81        20.3749   58.4878   10.2993 H         1 UNK         0.0959 
     82 H82        18.4735   57.2247    9.2465 H         1 UNK         0.0808 
     83 H83        19.9631   57.0344    8.3334 H         1 UNK         0.0808 
     84 H84        19.4056   55.7300    9.3678 H         1 UNK         0.0808 
     85 H85        22.5209   58.5706   10.1627 H         1 UNK         0.3181 
     86 H86        24.6761   58.2215   10.1845 H         1 UNK         0.0819 
     87 H87        24.1354   55.2604    9.6103 H         1 UNK         0.0823 
     88 H88        24.3370   56.5297    8.4048 H         1 UNK         0.0823 
     89 H89        25.6779   56.0813    9.4461 H         1 UNK         0.0823 
     90 H90        23.0833   55.6669   12.0786 H         1 UNK         0.3159 
     91 H91        25.2786   55.4616   13.9962 H         1 UNK         0.0870 
     92 H92        22.8213   58.2181   15.5356 H         1 UNK         0.3462 
     93 H93        22.6885   57.7856   13.8542 H         1 UNK         0.3462 
     94 H94        22.5462   54.1016   13.8462 H         1 UNK         0.0763 
     95 H95        23.6471   53.8421   15.1720 H         1 UNK         0.0763 
     96 H96        24.0215   51.9912   11.0201 H         1 UNK         0.0881 
     97 H97        23.1969   53.4995   11.2889 H         1 UNK         0.0881 
@<TRIPOS>BOND
     1    1    2 1    
     2    1   52 1    
     3    1   53 1    
     4    1   54 1    
     5    2    3 2    
     6    2    4 am   BACKBONE|DICT|INTERRES
     7    4    5 1    
     8    4   55 1    
     9    5    6 1    
    10    5   25 1    
    11    5   56 1    
    12    6    7 1    
    13    6   57 1    
    14    6   58 1    
    15    7    8 1    
    16    8    9 1    
    17    8   59 1    
    18    8   60 1    
    19    9   10 ar   
    20    9   14 ar   
    21   10   11 ar   
    22   10   61 1    
    23   11   12 ar   
    24   11   51 1    
    25   12   13 ar   
    26   12   62 1    
    27   13   14 ar   
    28   13   15 1    
    29   14   63 1    
    30   15   16 1    
    31   15   64 1    
    32   15   65 1    
    33   16   17 1    
    34   17   18 1    
    35   17   66 1    
    36   17   67 1    
    37   18   19 1    
    38   18   27 1    
    39   18   68 1    
    40   19   20 am   BACKBONE|DICT|INTERRES
    41   19   69 1    
    42   20   21 2    
    43   20   22 1    
    44   22   23 1    
    45   22   24 1    
    46   22   70 1    
    47   23   71 1    
    48   23   72 1    
    49   23   73 1    
    50   24   25 am   BACKBONE|DICT|INTERRES
    51   24   74 1    
    52   25   26 2    
    53   27   28 2    
    54   27   29 am   BACKBONE|DICT|INTERRES
    55   29   30 1    
    56   29   75 1    
    57   30   31 1    
    58   30   32 1    
    59   30   76 1    
    60   31   77 1    
    61   31   78 1    
    62   31   79 1    
    63   32   33 2    
    64   32   34 am   BACKBONE|DICT|INTERRES
    65   34   35 1    
    66   34   80 1    
    67   35   36 1    
    68   35   37 1    
    69   35   81 1    
    70   36   82 1    
    71   36   83 1    
    72   36   84 1    
    73   37   38 2    
    74   37   39 am   BACKBONE|DICT|INTERRES
    75   39   40 1    
    76   39   85 1    
    77   40   41 1    
    78   40   42 1    
    79   40   86 1    
    80   41   87 1    
    81   41   88 1    
    82   41   89 1    
    83   42   43 2    
    84   42   44 am   BACKBONE|DICT|INTERRES
    85   44   45 1    
    86   44   90 1    
    87   45   46 1    
    88   45   49 1    
    89   45   91 1    
    90   46   47 am   BACKBONE|DICT|INTERRES
    91   46   48 2    
    92   47   92 1    
    93   47   93 1    
    94   49   50 1    
    95   49   94 1    
    96   49   95 1    
    97   50   51 1    
    98   51   96 1    
    99   51   97 1    
@<TRIPOS>SUBSTRUCTURE
     1 UNK         1 GROUP             0       ****    0 ROOT    
