@<TRIPOS>MOLECULE
3R0
97   99    1
SMALL
USER_CHARGES


@<TRIPOS>ATOM
      1 CA         21.7223   53.1155   13.3019 C.3       0 UNK        -0.2006 
      2 C          20.2677   52.6758   13.2945 C.2       0 UNK         0.4864 
      3 O          19.3810   53.5170   13.1435 O.2       0 UNK        -0.5092 
      4 N          20.0308   51.3681   13.4767 N.am      1 UNK        -0.4825 
      5 CA         18.7191   50.7008   13.5124 C.3       1 UNK         0.0812 
      6 C6         17.9934   50.7068   12.1346 C.3       8 UNK        -0.0932 
      7 S7         19.0011   49.9994   10.7884 S.3       8 UNK        -0.2545 
      8 C8         18.1505   50.6622    9.3184 C.3       8 UNK         0.0228 
      9 C9         18.2835   52.1752    9.2158 C.ar      8 UNK        -0.0842 
     10 C10        19.5048   52.7474    8.8526 C.ar      8 UNK        -0.0874 
     11 C11        19.6472   54.1361    8.7814 C.ar      8 UNK        -0.0867 
     12 C12        18.5498   54.9547    9.0725 C.ar      8 UNK        -0.1042 
     13 C13        17.3163   54.3947    9.4250 C.ar      8 UNK        -0.0824 
     14 C14        17.1894   53.0030    9.4847 C.ar      8 UNK        -0.1194 
     15 C15        16.1126   55.2928    9.6968 C.3       8 UNK         0.0180 
     16 S16        15.2998   54.9553   11.2955 S.3       8 UNK        -0.2273 
     17 C17        16.5331   55.6055   12.4673 C.3       8 UNK        -0.0981 
     18 CA         16.1642   55.3150   13.9452 C.3       3 UNK         0.0747 
     19 N          16.0340   53.8778   14.2007 N.am      3 UNK        -0.4794 
     20 C          15.4892   53.3294   15.2957 C.2       2 UNK         0.5067 
     21 O          14.9749   53.9821   16.2036 O.2       2 UNK        -0.4802 
     22 CA         15.5213   51.7916   15.3970 C.3       2 UNK         0.0370 
     23 CB         14.1325   51.2069   15.0939 C.3       2 UNK        -0.1774 
     24 N          16.5059   51.1805   14.4977 N.am      2 UNK        -0.4750 
     25 C          17.8355   51.2380   14.6663 C.2       1 UNK         0.5001 
     26 O          18.3623   51.7020   15.6812 O.2       1 UNK        -0.4889 
     27 C          17.1998   55.9753   14.8771 C.2       3 UNK         0.4972 
     28 O          17.0678   57.1630   15.1732 O.2       3 UNK        -0.4802 
     29 N          18.2229   55.2037   15.2834 N.am      4 UNK        -0.4926 
     30 CA         19.4457   55.6358   15.9732 C.3       4 UNK         0.0426 
     31 CB         19.1350   56.1302   17.4011 C.3       4 UNK        -0.1835 
     32 C          20.2419   56.6564   15.1327 C.2       4 UNK         0.5138 
     33 O          20.7755   57.6290   15.6708 O.2       4 UNK        -0.5194 
     34 N          20.2576   56.4299   13.8132 N.am      5 UNK        -0.4222 
     35 CA         20.8503   57.3156   12.8152 C.3       5 UNK         0.0221 
     36 CB         20.2358   56.9794   11.4481 C.3       5 UNK        -0.2034 
     37 C          22.3808   57.1987   12.7716 C.2       5 UNK         0.4987 
     38 O          22.9401   56.1576   13.1263 O.2       5 UNK        -0.5478 
     39 N          23.0394   58.2543   12.2780 N.am      6 UNK        -0.4365 
     40 CA         24.4922   58.3357   12.0925 C.3       6 UNK         0.0273 
     41 CB         24.9078   59.8189   12.0527 C.3       6 UNK        -0.1956 
     42 C          24.9644   57.5517   10.8496 C.2       6 UNK         0.4962 
     43 O          25.5921   58.1267    9.9574 O.2       6 UNK        -0.5385 
     44 N          24.6372   56.2578   10.8109 N.am      7 UNK        -0.4054 
     45 CA         24.9524   55.3185    9.7249 C.3       7 UNK         0.0701 
     46 C          25.5860   53.9871   10.2167 C.2       7 UNK         0.5602 
     47 N          25.8657   53.8163   11.5038 N.am      7 UNK        -0.7339 
     48 O          25.8605   53.1003    9.4120 O.2       7 UNK        -0.5126 
     49 C49        23.7396   55.1123    8.7755 C.3       8 UNK        -0.0906 
     50 S50        22.2744   54.4128    9.6078 S.3       8 UNK        -0.2590 
     51 C51        20.9832   54.7401    8.3690 C.3       8 UNK         0.0201 
     52 H52        21.9284   53.7210   14.1839 H         1 UNK         0.0901 
     53 H53        21.9307   53.7214   12.4220 H         1 UNK         0.0901 
     54 H54        22.4085   52.2691   13.2980 H         1 UNK         0.0901 
     55 H55        20.8178   50.7519   13.6220 H         1 UNK         0.3005 
     56 H56        18.9205   49.6600   13.7715 H         1 UNK         0.1258 
     57 H57        17.7077   51.7265   11.8745 H         1 UNK         0.0713 
     58 H58        17.0732   50.1218   12.1679 H         1 UNK         0.0713 
     59 H59        17.1012   50.3642    9.3436 H         1 UNK         0.0869 
     60 H60        18.5762   50.2019    8.4256 H         1 UNK         0.0869 
     61 H61        20.3527   52.1103    8.6402 H         1 UNK         0.1451 
     62 H62        18.6533   56.0294    9.0130 H         1 UNK         0.1348 
     63 H63        16.2379   52.5655    9.7542 H         1 UNK         0.1248 
     64 H64        16.3938   56.3463    9.6592 H         1 UNK         0.0802 
     65 H65        15.3839   55.1427    8.8993 H         1 UNK         0.0802 
     66 H66        16.6215   56.6805   12.2977 H         1 UNK         0.0831 
     67 H67        17.5052   55.1742   12.2202 H         1 UNK         0.0831 
     68 H68        15.2000   55.7823   14.1592 H         1 UNK         0.1266 
     69 H69        16.4299   53.2682   13.5010 H         1 UNK         0.2858 
     70 H70        15.7838   51.5336   16.4252 H         1 UNK         0.0493 
     71 H71        13.8108   51.4331   14.0766 H         1 UNK         0.0858 
     72 H72        13.3810   51.6167   15.7704 H         1 UNK         0.0858 
     73 H73        14.1202   50.1241   15.2189 H         1 UNK         0.0858 
     74 H74        16.1426   50.7668   13.6510 H         1 UNK         0.2998 
     75 H75        18.2446   54.2529   14.9315 H         1 UNK         0.2942 
     76 H76        20.0766   54.7498   16.0582 H         1 UNK         0.0588 
     77 H77        18.5705   55.3867   17.9636 H         1 UNK         0.0836 
     78 H78        18.5593   57.0561   17.3957 H         1 UNK         0.0836 
     79 H79        20.0548   56.3250   17.9537 H         1 UNK         0.0836 
     80 H80        19.8472   55.5665   13.4745 H         1 UNK         0.3003 
     81 H81        20.5926   58.3457   13.0717 H         1 UNK         0.0959 
     82 H82        20.3544   55.9218   11.2121 H         1 UNK         0.0808 
     83 H83        19.1693   57.2036   11.4291 H         1 UNK         0.0808 
     84 H84        20.7019   57.5504   10.6440 H         1 UNK         0.0808 
     85 H85        22.5063   59.0528   11.9632 H         1 UNK         0.3181 
     86 H86        24.9791   57.8816   12.9585 H         1 UNK         0.0819 
     87 H87        24.6136   60.3387   12.9646 H         1 UNK         0.0823 
     88 H88        25.9903   59.9192   11.9618 H         1 UNK         0.0823 
     89 H89        24.4599   60.3427   11.2072 H         1 UNK         0.0823 
     90 H90        24.0763   55.8892   11.5752 H         1 UNK         0.3159 
     91 H91        25.7488   55.7570    9.1217 H         1 UNK         0.0870 
     92 H92        26.2864   52.9500   11.8007 H         1 UNK         0.3462 
     93 H93        25.6812   54.5407   12.1783 H         1 UNK         0.3462 
     94 H94        24.0093   54.4658    7.9384 H         1 UNK         0.0763 
     95 H95        23.4625   56.0706    8.3333 H         1 UNK         0.0763 
     96 H96        21.2859   54.3192    7.4090 H         1 UNK         0.0881 
     97 H97        20.8929   55.8175    8.2225 H         1 UNK         0.0881 
@<TRIPOS>BOND
     1    1    2 1    
     2    1   52 1    
     3    1   53 1    
     4    1   54 1    
     5    2    3 2    
     6    2    4 am   BACKBONE|DICT|INTERRES
     7    4    5 1    
     8    4   55 1    
     9    5    6 1    
    10    5   25 1    
    11    5   56 1    
    12    6    7 1    
    13    6   57 1    
    14    6   58 1    
    15    7    8 1    
    16    8    9 1    
    17    8   59 1    
    18    8   60 1    
    19    9   10 ar   
    20    9   14 ar   
    21   10   11 ar   
    22   10   61 1    
    23   11   12 ar   
    24   11   51 1    
    25   12   13 ar   
    26   12   62 1    
    27   13   14 ar   
    28   13   15 1    
    29   14   63 1    
    30   15   16 1    
    31   15   64 1    
    32   15   65 1    
    33   16   17 1    
    34   17   18 1    
    35   17   66 1    
    36   17   67 1    
    37   18   19 1    
    38   18   27 1    
    39   18   68 1    
    40   19   20 am   BACKBONE|DICT|INTERRES
    41   19   69 1    
    42   20   21 2    
    43   20   22 1    
    44   22   23 1    
    45   22   24 1    
    46   22   70 1    
    47   23   71 1    
    48   23   72 1    
    49   23   73 1    
    50   24   25 am   BACKBONE|DICT|INTERRES
    51   24   74 1    
    52   25   26 2    
    53   27   28 2    
    54   27   29 am   BACKBONE|DICT|INTERRES
    55   29   30 1    
    56   29   75 1    
    57   30   31 1    
    58   30   32 1    
    59   30   76 1    
    60   31   77 1    
    61   31   78 1    
    62   31   79 1    
    63   32   33 2    
    64   32   34 am   BACKBONE|DICT|INTERRES
    65   34   35 1    
    66   34   80 1    
    67   35   36 1    
    68   35   37 1    
    69   35   81 1    
    70   36   82 1    
    71   36   83 1    
    72   36   84 1    
    73   37   38 2    
    74   37   39 am   BACKBONE|DICT|INTERRES
    75   39   40 1    
    76   39   85 1    
    77   40   41 1    
    78   40   42 1    
    79   40   86 1    
    80   41   87 1    
    81   41   88 1    
    82   41   89 1    
    83   42   43 2    
    84   42   44 am   BACKBONE|DICT|INTERRES
    85   44   45 1    
    86   44   90 1    
    87   45   46 1    
    88   45   49 1    
    89   45   91 1    
    90   46   47 am   BACKBONE|DICT|INTERRES
    91   46   48 2    
    92   47   92 1    
    93   47   93 1    
    94   49   50 1    
    95   49   94 1    
    96   49   95 1    
    97   50   51 1    
    98   51   96 1    
    99   51   97 1    
@<TRIPOS>SUBSTRUCTURE
     1 UNK         1 GROUP             0       ****    0 ROOT    
