@<TRIPOS>MOLECULE
3R0
97   99    1
SMALL
USER_CHARGES


@<TRIPOS>ATOM
      1 CA         14.9465   51.6245    6.5549 C.3       0 UNK        -0.2006 
      2 C          15.8370   52.5162    7.4075 C.2       0 UNK         0.4864 
      3 O          15.8929   53.7248    7.1773 O.2       0 UNK        -0.5092 
      4 N          16.5399   51.9281    8.3830 N.am      1 UNK        -0.4825 
      5 CA         17.4077   52.6354    9.3301 C.3       1 UNK         0.0812 
      6 C6         18.3232   51.6574   10.0990 C.3       8 UNK        -0.0932 
      7 S7         19.5920   50.8704    9.0488 S.3       8 UNK        -0.2545 
      8 C8         20.1564   49.4889   10.1052 C.3       8 UNK         0.0228 
      9 C9         20.3801   49.9301   11.5450 C.ar      8 UNK        -0.0842 
     10 C10        21.5215   50.6541   11.8995 C.ar      8 UNK        -0.0874 
     11 C11        21.6584   51.1674   13.1940 C.ar      8 UNK        -0.0867 
     12 C12        20.6647   50.9183   14.1457 C.ar      8 UNK        -0.1042 
     13 C13        19.5126   50.2116   13.7927 C.ar      8 UNK        -0.0824 
     14 C14        19.3916   49.6923   12.5027 C.ar      8 UNK        -0.1194 
     15 C15        18.3525   50.0726   14.7635 C.3       8 UNK         0.0180 
     16 S16        17.0573   51.3011   14.3822 S.3       8 UNK        -0.2273 
     17 C17        17.5586   52.7311   15.3989 C.3       8 UNK        -0.0981 
     18 CA         18.4935   53.7492   14.6820 C.3       3 UNK         0.0747 
     19 N          17.9697   54.2574   13.4036 N.am      3 UNK        -0.4794 
     20 C          16.8906   55.0333   13.2245 C.2       2 UNK         0.5067 
     21 O          16.1549   55.4139   14.1346 O.2       2 UNK        -0.4802 
     22 CA         16.5974   55.4929   11.7847 C.3       2 UNK         0.0370 
     23 CB         17.1495   56.9113   11.5655 C.3       2 UNK        -0.1774 
     24 N          17.1632   54.5984   10.7698 N.am      2 UNK        -0.4750 
     25 C          16.5863   53.4710   10.3355 C.2       1 UNK         0.5001 
     26 O          15.4862   53.0679   10.7227 O.2       1 UNK        -0.4889 
     27 C          18.9628   54.8710   15.6425 C.2       3 UNK         0.4972 
     28 O          18.9386   54.6818   16.8601 O.2       3 UNK        -0.4802 
     29 N          19.3885   56.0171   15.0967 N.am      4 UNK        -0.4926 
     30 CA         19.8880   57.1688   15.8442 C.3       4 UNK         0.0426 
     31 CB         18.7172   58.0997   16.2029 C.3       4 UNK        -0.1835 
     32 C          20.9293   57.9030   14.9954 C.2       4 UNK         0.5138 
     33 O          20.8143   57.9035   13.7661 O.2       4 UNK        -0.5194 
     34 N          21.9109   58.5245   15.6645 N.am      5 UNK        -0.4222 
     35 CA         23.0459   59.2531   15.0836 C.3       5 UNK         0.0221 
     36 CB         22.5686   60.5738   14.4340 C.3       5 UNK        -0.2034 
     37 C          23.8694   58.3440   14.1495 C.2       5 UNK         0.4987 
     38 O          24.4401   57.3613   14.6246 O.2       5 UNK        -0.5478 
     39 N          23.8952   58.6618   12.8489 N.am      6 UNK        -0.4365 
     40 CA         24.5235   57.8558   11.7972 C.3       6 UNK         0.0273 
     41 CB         24.8564   58.7731   10.6071 C.3       6 UNK        -0.1956 
     42 C          23.6647   56.6582   11.3378 C.2       6 UNK         0.4962 
     43 O          24.1373   55.8758   10.5123 O.2       6 UNK        -0.5385 
     44 N          22.4272   56.5515   11.8411 N.am      7 UNK        -0.4054 
     45 CA         21.4097   55.5346   11.5273 C.3       7 UNK         0.0701 
     46 C          20.7390   55.6766   10.1335 C.2       7 UNK         0.5602 
     47 N          21.1106   56.6357    9.2970 N.am      7 UNK        -0.7339 
     48 O          19.8074   54.9366    9.8326 O.2       7 UNK        -0.5126 
     49 C49        21.8542   54.0752   11.8232 C.3       8 UNK        -0.0906 
     50 S50        22.3494   53.8214   13.5623 S.3       8 UNK        -0.2590 
     51 C51        22.8375   52.0630   13.5426 C.3       8 UNK         0.0201 
     52 H52        15.0036   50.5797    6.8598 H         1 UNK         0.0901 
     53 H53        15.2430   51.6887    5.5082 H         1 UNK         0.0901 
     54 H54        13.9081   51.9450    6.6356 H         1 UNK         0.0901 
     55 H55        16.4494   50.9338    8.5341 H         1 UNK         0.3005 
     56 H56        18.0341   53.3210    8.7545 H         1 UNK         0.1258 
     57 H57        18.8540   52.1797   10.8979 H         1 UNK         0.0713 
     58 H58        17.7228   50.8842   10.5817 H         1 UNK         0.0713 
     59 H59        19.4194   48.6853   10.0629 H         1 UNK         0.0869 
     60 H60        21.0799   49.0773    9.6956 H         1 UNK         0.0869 
     61 H61        22.2711   50.8693   11.1501 H         1 UNK         0.1451 
     62 H62        20.7592   51.3337   15.1399 H         1 UNK         0.1348 
     63 H63        18.4901   49.1631   12.2251 H         1 UNK         0.1248 
     64 H64        17.9250   49.0727   14.6759 H         1 UNK         0.0802 
     65 H65        18.6880   50.1694   15.7969 H         1 UNK         0.0802 
     66 H66        18.0272   52.3483   16.3071 H         1 UNK         0.0831 
     67 H67        16.6478   53.2327   15.7300 H         1 UNK         0.0831 
     68 H68        19.4092   53.2234   14.4210 H         1 UNK         0.1266 
     69 H69        18.4839   53.9801   12.5814 H         1 UNK         0.2858 
     70 H70        15.5130   55.5292   11.6610 H         1 UNK         0.0493 
     71 H71        18.2326   56.9513   11.6854 H         1 UNK         0.0858 
     72 H72        16.9091   57.2811   10.5687 H         1 UNK         0.0858 
     73 H73        16.7186   57.6124   12.2818 H         1 UNK         0.0858 
     74 H74        18.0828   54.8383   10.4009 H         1 UNK         0.2998 
     75 H75        19.4225   56.1156   14.0916 H         1 UNK         0.2942 
     76 H76        20.3747   56.8282   16.7609 H         1 UNK         0.0588 
     77 H77        19.0647   58.9752   16.7527 H         1 UNK         0.0836 
     78 H78        17.9850   57.5923   16.8312 H         1 UNK         0.0836 
     79 H79        18.2010   58.4566   15.3106 H         1 UNK         0.0836 
     80 H80        21.9234   58.4398   16.6715 H         1 UNK         0.3003 
     81 H81        23.7082   59.5139   15.9108 H         1 UNK         0.0959 
     82 H82        22.0650   61.2046   15.1667 H         1 UNK         0.0808 
     83 H83        23.4096   61.1513   14.0473 H         1 UNK         0.0808 
     84 H84        21.8688   60.4090   13.6140 H         1 UNK         0.0808 
     85 H85        23.3866   59.4823   12.5506 H         1 UNK         0.3181 
     86 H86        25.4602   57.4472   12.1828 H         1 UNK         0.0819 
     87 H87        23.9588   59.2106   10.1685 H         1 UNK         0.0823 
     88 H88        25.5160   59.5879   10.9064 H         1 UNK         0.0823 
     89 H89        25.3685   58.2212    9.8175 H         1 UNK         0.0823 
     90 H90        22.1111   57.2489   12.5090 H         1 UNK         0.3159 
     91 H91        20.5941   55.7514   12.2153 H         1 UNK         0.0870 
     92 H92        20.6430   56.7208    8.4087 H         1 UNK         0.3462 
     93 H93        21.8716   57.2517    9.5298 H         1 UNK         0.3462 
     94 H94        22.6747   53.7760   11.1696 H         1 UNK         0.0763 
     95 H95        21.0326   53.3895   11.6114 H         1 UNK         0.0763 
     96 H96        23.2282   51.7894   14.5238 H         1 UNK         0.0881 
     97 H97        23.6570   51.9213   12.8361 H         1 UNK         0.0881 
@<TRIPOS>BOND
     1    1    2 1    
     2    1   52 1    
     3    1   53 1    
     4    1   54 1    
     5    2    3 2    
     6    2    4 am   BACKBONE|DICT|INTERRES
     7    4    5 1    
     8    4   55 1    
     9    5    6 1    
    10    5   25 1    
    11    5   56 1    
    12    6    7 1    
    13    6   57 1    
    14    6   58 1    
    15    7    8 1    
    16    8    9 1    
    17    8   59 1    
    18    8   60 1    
    19    9   10 ar   
    20    9   14 ar   
    21   10   11 ar   
    22   10   61 1    
    23   11   12 ar   
    24   11   51 1    
    25   12   13 ar   
    26   12   62 1    
    27   13   14 ar   
    28   13   15 1    
    29   14   63 1    
    30   15   16 1    
    31   15   64 1    
    32   15   65 1    
    33   16   17 1    
    34   17   18 1    
    35   17   66 1    
    36   17   67 1    
    37   18   19 1    
    38   18   27 1    
    39   18   68 1    
    40   19   20 am   BACKBONE|DICT|INTERRES
    41   19   69 1    
    42   20   21 2    
    43   20   22 1    
    44   22   23 1    
    45   22   24 1    
    46   22   70 1    
    47   23   71 1    
    48   23   72 1    
    49   23   73 1    
    50   24   25 am   BACKBONE|DICT|INTERRES
    51   24   74 1    
    52   25   26 2    
    53   27   28 2    
    54   27   29 am   BACKBONE|DICT|INTERRES
    55   29   30 1    
    56   29   75 1    
    57   30   31 1    
    58   30   32 1    
    59   30   76 1    
    60   31   77 1    
    61   31   78 1    
    62   31   79 1    
    63   32   33 2    
    64   32   34 am   BACKBONE|DICT|INTERRES
    65   34   35 1    
    66   34   80 1    
    67   35   36 1    
    68   35   37 1    
    69   35   81 1    
    70   36   82 1    
    71   36   83 1    
    72   36   84 1    
    73   37   38 2    
    74   37   39 am   BACKBONE|DICT|INTERRES
    75   39   40 1    
    76   39   85 1    
    77   40   41 1    
    78   40   42 1    
    79   40   86 1    
    80   41   87 1    
    81   41   88 1    
    82   41   89 1    
    83   42   43 2    
    84   42   44 am   BACKBONE|DICT|INTERRES
    85   44   45 1    
    86   44   90 1    
    87   45   46 1    
    88   45   49 1    
    89   45   91 1    
    90   46   47 am   BACKBONE|DICT|INTERRES
    91   46   48 2    
    92   47   92 1    
    93   47   93 1    
    94   49   50 1    
    95   49   94 1    
    96   49   95 1    
    97   50   51 1    
    98   51   96 1    
    99   51   97 1    
@<TRIPOS>SUBSTRUCTURE
     1 UNK         1 GROUP             0       ****    0 ROOT    
