@<TRIPOS>MOLECULE
3R0
97   99    1
SMALL
USER_CHARGES


@<TRIPOS>ATOM
      1 CA         15.7242   52.6170    6.6564 C.3       0 UNK        -0.2006 
      2 C          16.6117   52.6973    7.8892 C.2       0 UNK         0.4864 
      3 O          17.6445   53.3663    7.8574 O.2       0 UNK        -0.5092 
      4 N          16.2181   52.0201    8.9751 N.am      1 UNK        -0.4825 
      5 CA         16.9271   51.9887   10.2580 C.3       1 UNK         0.0812 
      6 C6         16.5444   50.7368   11.0921 C.3       8 UNK        -0.0932 
      7 S7         17.2421   49.2136   10.3705 S.3       8 UNK        -0.2545 
      8 C8         18.4297   48.6838   11.6571 C.3       8 UNK         0.0228 
      9 C9         19.4408   49.7617   12.0398 C.ar      8 UNK        -0.0842 
     10 C10        20.1741   50.4332   11.0556 C.ar      8 UNK        -0.0874 
     11 C11        21.0729   51.4425   11.4076 C.ar      8 UNK        -0.0867 
     12 C12        21.2629   51.7575   12.7539 C.ar      8 UNK        -0.1042 
     13 C13        20.5518   51.0867   13.7521 C.ar      8 UNK        -0.0824 
     14 C14        19.6445   50.0850   13.3872 C.ar      8 UNK        -0.1194 
     15 C15        20.8010   51.4474   15.2152 C.3       8 UNK         0.0180 
     16 S16        19.2887   51.7162   16.2044 S.3       8 UNK        -0.2273 
     17 C17        18.2494   52.8411   15.2074 C.3       8 UNK        -0.0981 
     18 CA         18.9488   54.0593   14.5526 C.3       3 UNK         0.0747 
     19 N          18.1197   54.5840   13.4677 N.am      3 UNK        -0.4794 
     20 C          18.4725   55.4932   12.5527 C.2       2 UNK         0.5067 
     21 O          19.5172   56.1465   12.5975 O.2       2 UNK        -0.4802 
     22 CA         17.4967   55.6385   11.3684 C.3       2 UNK         0.0370 
     23 CB         17.9055   56.7511   10.3889 C.3       2 UNK        -0.1774 
     24 N          17.3878   54.3698   10.6394 N.am      2 UNK        -0.4750 
     25 C          16.6936   53.2959   11.0404 C.2       1 UNK         0.5001 
     26 O          15.9210   53.3132   12.0015 O.2       1 UNK        -0.4889 
     27 C          19.3592   55.1332   15.5751 C.2       3 UNK         0.4972 
     28 O          20.4920   55.1066   16.0551 O.2       3 UNK        -0.4802 
     29 N          18.4706   56.1072   15.8230 N.am      4 UNK        -0.4926 
     30 CA         18.7145   57.2683   16.6879 C.3       4 UNK         0.0426 
     31 CB         17.4049   58.0540   16.8584 C.3       4 UNK        -0.1835 
     32 C          19.8369   58.1988   16.1853 C.2       4 UNK         0.5138 
     33 O          20.4653   58.8767   16.9987 O.2       4 UNK        -0.5194 
     34 N          20.0764   58.1976   14.8675 N.am      5 UNK        -0.4222 
     35 CA         21.1560   58.9285   14.2011 C.3       5 UNK         0.0221 
     36 CB         20.5603   59.6645   12.9866 C.3       5 UNK        -0.2034 
     37 C          22.2974   57.9946   13.7562 C.2       5 UNK         0.4987 
     38 O          23.2098   58.4592   13.0712 O.2       5 UNK        -0.5478 
     39 N          22.2081   56.6939   14.0848 N.am      6 UNK        -0.4365 
     40 CA         23.0785   55.5949   13.6385 C.3       6 UNK         0.0273 
     41 CB         24.4539   55.6863   14.3311 C.3       6 UNK        -0.1956 
     42 C          23.1946   55.4809   12.1009 C.2       6 UNK         0.4962 
     43 O          24.2327   55.0486   11.5964 O.2       6 UNK        -0.5385 
     44 N          22.1365   55.8960   11.3910 N.am      7 UNK        -0.4054 
     45 CA         22.0702   56.0752    9.9306 C.3       7 UNK         0.0701 
     46 C          23.0408   57.1534    9.3603 C.2       7 UNK         0.5602 
     47 N          23.5755   58.0641   10.1654 N.am      7 UNK        -0.7339 
     48 O          23.2886   57.1943    8.1576 O.2       7 UNK        -0.5126 
     49 C49        22.1064   54.7378    9.1367 C.3       8 UNK        -0.0906 
     50 S50        20.8176   53.5714    9.6928 S.3       8 UNK        -0.2590 
     51 C51        21.8325   52.2085   10.3398 C.3       8 UNK         0.0201 
     52 H52        15.3800   53.6124    6.3772 H         1 UNK         0.0901 
     53 H53        14.8491   51.9892    6.8233 H         1 UNK         0.0901 
     54 H54        16.2841   52.2024    5.8185 H         1 UNK         0.0901 
     55 H55        15.3561   51.4944    8.9444 H         1 UNK         0.3005 
     56 H56        18.0004   51.9393   10.0594 H         1 UNK         0.1258 
     57 H57        15.4602   50.6308   11.1591 H         1 UNK         0.0713 
     58 H58        16.8975   50.8285   12.1211 H         1 UNK         0.0713 
     59 H59        18.9699   47.8069   11.2983 H         1 UNK         0.0869 
     60 H60        17.8654   48.3582   12.5325 H         1 UNK         0.0869 
     61 H61        20.0254   50.1882   10.0126 H         1 UNK         0.1451 
     62 H62        21.9680   52.5315   13.0218 H         1 UNK         0.1348 
     63 H63        19.0925   49.5623   14.1564 H         1 UNK         0.1248 
     64 H64        21.3729   50.6409   15.6755 H         1 UNK         0.0802 
     65 H65        21.4248   52.3390   15.2962 H         1 UNK         0.0802 
     66 H66        17.4122   53.1694   15.8262 H         1 UNK         0.0831 
     67 H67        17.8030   52.2192   14.4291 H         1 UNK         0.0831 
     68 H68        19.8700   53.7316   14.0743 H         1 UNK         0.1266 
     69 H69        17.2398   54.1047   13.3091 H         1 UNK         0.2858 
     70 H70        16.5201   55.9009   11.7801 H         1 UNK         0.0493 
     71 H71        18.0478   57.7009   10.9062 H         1 UNK         0.0858 
     72 H72        17.1387   56.9081    9.6304 H         1 UNK         0.0858 
     73 H73        18.8344   56.5124    9.8743 H         1 UNK         0.0858 
     74 H74        17.9693   54.2668    9.8142 H         1 UNK         0.2998 
     75 H75        17.5713   56.0580   15.3647 H         1 UNK         0.2942 
     76 H76        19.0177   56.8933   17.6677 H         1 UNK         0.0588 
     77 H77        17.0359   58.4373   15.9062 H         1 UNK         0.0836 
     78 H78        17.5468   58.9096   17.5203 H         1 UNK         0.0836 
     79 H79        16.6233   57.4344   17.2982 H         1 UNK         0.0836 
     80 H80        19.5203   57.5918   14.2765 H         1 UNK         0.3003 
     81 H81        21.5905   59.6697   14.8753 H         1 UNK         0.0959 
     82 H82        19.7585   60.3392   13.2866 H         1 UNK         0.0808 
     83 H83        21.3159   60.2681   12.4818 H         1 UNK         0.0808 
     84 H84        20.1553   58.9676   12.2514 H         1 UNK         0.0808 
     85 H85        21.4399   56.4118   14.6821 H         1 UNK         0.3181 
     86 H86        22.6000   54.6747   13.9752 H         1 UNK         0.0819 
     87 H87        25.0127   56.5629   14.0015 H         1 UNK         0.0823 
     88 H88        25.0642   54.8094   14.1116 H         1 UNK         0.0823 
     89 H89        24.3491   55.7425   15.4145 H         1 UNK         0.0823 
     90 H90        21.3013   56.1764   11.8968 H         1 UNK         0.3159 
     91 H91        21.0908   56.5144    9.7533 H         1 UNK         0.0870 
     92 H92        23.3918   58.0654   11.1645 H         1 UNK         0.3462 
     93 H93        24.1901   58.7592    9.7738 H         1 UNK         0.3462 
     94 H94        21.9330   54.9215    8.0750 H         1 UNK         0.0763 
     95 H95        23.0942   54.2795    9.2019 H         1 UNK         0.0763 
     96 H96        22.1167   51.5450    9.5217 H         1 UNK         0.0881 
     97 H97        22.7622   52.5973   10.7587 H         1 UNK         0.0881 
@<TRIPOS>BOND
     1    1    2 1    
     2    1   52 1    
     3    1   53 1    
     4    1   54 1    
     5    2    3 2    
     6    2    4 am   BACKBONE|DICT|INTERRES
     7    4    5 1    
     8    4   55 1    
     9    5    6 1    
    10    5   25 1    
    11    5   56 1    
    12    6    7 1    
    13    6   57 1    
    14    6   58 1    
    15    7    8 1    
    16    8    9 1    
    17    8   59 1    
    18    8   60 1    
    19    9   10 ar   
    20    9   14 ar   
    21   10   11 ar   
    22   10   61 1    
    23   11   12 ar   
    24   11   51 1    
    25   12   13 ar   
    26   12   62 1    
    27   13   14 ar   
    28   13   15 1    
    29   14   63 1    
    30   15   16 1    
    31   15   64 1    
    32   15   65 1    
    33   16   17 1    
    34   17   18 1    
    35   17   66 1    
    36   17   67 1    
    37   18   19 1    
    38   18   27 1    
    39   18   68 1    
    40   19   20 am   BACKBONE|DICT|INTERRES
    41   19   69 1    
    42   20   21 2    
    43   20   22 1    
    44   22   23 1    
    45   22   24 1    
    46   22   70 1    
    47   23   71 1    
    48   23   72 1    
    49   23   73 1    
    50   24   25 am   BACKBONE|DICT|INTERRES
    51   24   74 1    
    52   25   26 2    
    53   27   28 2    
    54   27   29 am   BACKBONE|DICT|INTERRES
    55   29   30 1    
    56   29   75 1    
    57   30   31 1    
    58   30   32 1    
    59   30   76 1    
    60   31   77 1    
    61   31   78 1    
    62   31   79 1    
    63   32   33 2    
    64   32   34 am   BACKBONE|DICT|INTERRES
    65   34   35 1    
    66   34   80 1    
    67   35   36 1    
    68   35   37 1    
    69   35   81 1    
    70   36   82 1    
    71   36   83 1    
    72   36   84 1    
    73   37   38 2    
    74   37   39 am   BACKBONE|DICT|INTERRES
    75   39   40 1    
    76   39   85 1    
    77   40   41 1    
    78   40   42 1    
    79   40   86 1    
    80   41   87 1    
    81   41   88 1    
    82   41   89 1    
    83   42   43 2    
    84   42   44 am   BACKBONE|DICT|INTERRES
    85   44   45 1    
    86   44   90 1    
    87   45   46 1    
    88   45   49 1    
    89   45   91 1    
    90   46   47 am   BACKBONE|DICT|INTERRES
    91   46   48 2    
    92   47   92 1    
    93   47   93 1    
    94   49   50 1    
    95   49   94 1    
    96   49   95 1    
    97   50   51 1    
    98   51   96 1    
    99   51   97 1    
@<TRIPOS>SUBSTRUCTURE
     1 UNK         1 GROUP             0       ****    0 ROOT    
