@<TRIPOS>MOLECULE
3R0
97   99    1
SMALL
USER_CHARGES


@<TRIPOS>ATOM
      1 CA         23.8788   53.2667   12.5601 C.3       0 UNK        -0.2006 
      2 C          22.9056   52.1523   12.9032 C.2       0 UNK         0.4864 
      3 O          23.3189   50.9998   13.0360 O.2       0 UNK        -0.5092 
      4 N          21.6216   52.4921   13.0450 N.am      1 UNK        -0.4825 
      5 CA         20.5372   51.5722   13.3996 C.3       1 UNK         0.0812 
      6 C6         19.4873   51.4717   12.2620 C.3       8 UNK        -0.0932 
      7 S7         20.1606   50.7134   10.7442 S.3       8 UNK        -0.2545 
      8 C8         18.6360   50.3900    9.7928 C.3       8 UNK         0.0228 
      9 C9         17.7832   51.6432    9.6572 C.ar      8 UNK        -0.0842 
     10 C10        18.2785   52.7530    8.9686 C.ar      8 UNK        -0.0874 
     11 C11        17.5606   53.9513    8.9420 C.ar      8 UNK        -0.0867 
     12 C12        16.3103   54.0161    9.5644 C.ar      8 UNK        -0.1042 
     13 C13        15.7893   52.9009   10.2293 C.ar      8 UNK        -0.0824 
     14 C14        16.5294   51.7160   10.2705 C.ar      8 UNK        -0.1194 
     15 C15        14.4438   52.9878   10.9371 C.3       8 UNK         0.0180 
     16 S16        14.6144   52.9291   12.7512 S.3       8 UNK        -0.2273 
     17 C17        15.6537   54.3952   13.0628 C.3       8 UNK        -0.0981 
     18 CA         16.1690   54.4691   14.5198 C.3       3 UNK         0.0747 
     19 N          16.9082   53.2658   14.9129 N.am      3 UNK        -0.4794 
     20 C          17.2378   52.9438   16.1716 C.2       2 UNK         0.5067 
     21 O          16.9101   53.6050   17.1568 O.2       2 UNK        -0.4802 
     22 CA         18.0774   51.6656   16.3680 C.3       2 UNK         0.0370 
     23 CB         17.1686   50.4823   16.7366 C.3       2 UNK        -0.1774 
     24 N          18.8873   51.3083   15.1967 N.am      2 UNK        -0.4750 
     25 C          19.8913   52.0545   14.7131 C.2       1 UNK         0.5001 
     26 O          20.2805   53.0905   15.2582 O.2       1 UNK        -0.4889 
     27 C          17.0170   55.7413   14.7098 C.2       3 UNK         0.4972 
     28 O          16.5060   56.7361   15.2254 O.2       3 UNK        -0.4802 
     29 N          18.2894   55.6855   14.2918 N.am      4 UNK        -0.4926 
     30 CA         19.2526   56.7799   14.3572 C.3       4 UNK         0.0426 
     31 CB         18.8848   57.8910   13.3523 C.3       4 UNK        -0.1835 
     32 C          20.6546   56.2472   14.0446 C.2       4 UNK         0.5138 
     33 O          20.8105   55.4088   13.1511 O.2       4 UNK        -0.5194 
     34 N          21.6589   56.8061   14.7328 N.am      5 UNK        -0.4222 
     35 CA         23.0811   56.5756   14.4572 C.3       5 UNK         0.0221 
     36 CB         23.9235   57.0992   15.6310 C.3       5 UNK        -0.2034 
     37 C          23.5392   57.2192   13.1352 C.2       5 UNK         0.4987 
     38 O          24.4679   56.7150   12.5036 O.2       5 UNK        -0.5478 
     39 N          22.8529   58.2945   12.7180 N.am      6 UNK        -0.4365 
     40 CA         23.0685   59.0234   11.4629 C.3       6 UNK         0.0273 
     41 CB         22.1539   60.2594   11.4375 C.3       6 UNK        -0.1956 
     42 C          22.8612   58.1786   10.1909 C.2       6 UNK         0.4962 
     43 O          23.3893   58.5446    9.1397 O.2       6 UNK        -0.5385 
     44 N          22.1217   57.0679   10.3050 N.am      7 UNK        -0.4054 
     45 CA         21.9681   56.0539    9.2534 C.3       7 UNK         0.0701 
     46 C          23.2368   55.1830    9.0163 C.2       7 UNK         0.5602 
     47 N          24.2773   55.2617    9.8384 N.am      7 UNK        -0.7339 
     48 O          23.2840   54.4279    8.0488 O.2       7 UNK        -0.5126 
     49 C49        20.7147   55.1742    9.4952 C.3       8 UNK        -0.0906 
     50 S50        19.1669   56.1448    9.4470 S.3       8 UNK        -0.2590 
     51 C51        18.1499   55.1859    8.2753 C.3       8 UNK         0.0201 
     52 H52        24.5010   52.9755   11.7145 H         1 UNK         0.0901 
     53 H53        24.5298   53.4786   13.4076 H         1 UNK         0.0901 
     54 H54        23.3536   54.1820   12.2904 H         1 UNK         0.0901 
     55 H55        21.3522   53.4725   13.0168 H         1 UNK         0.3005 
     56 H56        20.9334   50.5741   13.5999 H         1 UNK         0.1258 
     57 H57        19.1001   52.4627   12.0147 H         1 UNK         0.0713 
     58 H58        18.6279   50.8720   12.5660 H         1 UNK         0.0713 
     59 H59        18.0767   49.5886   10.2780 H         1 UNK         0.0869 
     60 H60        18.9027   50.0232    8.8007 H         1 UNK         0.0869 
     61 H61        19.2487   52.6899    8.4975 H         1 UNK         0.1451 
     62 H62        15.7546   54.9439    9.5524 H         1 UNK         0.1348 
     63 H63        16.1407   50.8638   10.8114 H         1 UNK         0.1248 
     64 H64        13.9151   53.9006   10.6581 H         1 UNK         0.0802 
     65 H65        13.8136   52.1583   10.6138 H         1 UNK         0.0802 
     66 H66        15.0679   55.2831   12.8162 H         1 UNK         0.0831 
     67 H67        16.4989   54.3829   12.3727 H         1 UNK         0.0831 
     68 H68        15.3036   54.5575   15.1812 H         1 UNK         0.1266 
     69 H69        17.1866   52.6466   14.1674 H         1 UNK         0.2858 
     70 H70        18.7577   51.8457   17.2031 H         1 UNK         0.0493 
     71 H71        16.5752   50.7084   17.6238 H         1 UNK         0.0858 
     72 H72        16.4714   50.2417   15.9330 H         1 UNK         0.0858 
     73 H73        17.7497   49.5873   16.9591 H         1 UNK         0.0858 
     74 H74        18.6289   50.4593   14.7137 H         1 UNK         0.2998 
     75 H75        18.6588   54.8214   13.9158 H         1 UNK         0.2942 
     76 H76        19.2448   57.1867   15.3706 H         1 UNK         0.0588 
     77 H77        18.8452   57.5093   12.3310 H         1 UNK         0.0836 
     78 H78        19.6172   58.6984   13.3707 H         1 UNK         0.0836 
     79 H79        17.9172   58.3384   13.5775 H         1 UNK         0.0836 
     80 H80        21.4395   57.4719   15.4604 H         1 UNK         0.3003 
     81 H81        23.2404   55.4987   14.3772 H         1 UNK         0.0959 
     82 H82        23.7987   58.1733   15.7739 H         1 UNK         0.0808 
     83 H83        23.6568   56.6019   16.5638 H         1 UNK         0.0808 
     84 H84        24.9853   56.9147   15.4601 H         1 UNK         0.0808 
     85 H85        22.1211   58.6446   13.3179 H         1 UNK         0.3181 
     86 H86        24.1066   59.3624   11.4565 H         1 UNK         0.0819 
     87 H87        21.0990   59.9827   11.4600 H         1 UNK         0.0823 
     88 H88        22.3159   60.8457   10.5317 H         1 UNK         0.0823 
     89 H89        22.3491   60.9181   12.2840 H         1 UNK         0.0823 
     90 H90        21.7202   56.8356   11.2017 H         1 UNK         0.3159 
     91 H91        21.8148   56.5851    8.3123 H         1 UNK         0.0870 
     92 H92        25.0909   54.7000    9.6470 H         1 UNK         0.3462 
     93 H93        24.2687   55.8713   10.6484 H         1 UNK         0.3462 
     94 H94        20.6648   54.3936    8.7365 H         1 UNK         0.0763 
     95 H95        20.7775   54.6595   10.4560 H         1 UNK         0.0763 
     96 H96        17.3466   55.8245    7.9049 H         1 UNK         0.0881 
     97 H97        18.7407   54.9089    7.4008 H         1 UNK         0.0881 
@<TRIPOS>BOND
     1    1    2 1    
     2    1   52 1    
     3    1   53 1    
     4    1   54 1    
     5    2    3 2    
     6    2    4 am   BACKBONE|DICT|INTERRES
     7    4    5 1    
     8    4   55 1    
     9    5    6 1    
    10    5   25 1    
    11    5   56 1    
    12    6    7 1    
    13    6   57 1    
    14    6   58 1    
    15    7    8 1    
    16    8    9 1    
    17    8   59 1    
    18    8   60 1    
    19    9   10 ar   
    20    9   14 ar   
    21   10   11 ar   
    22   10   61 1    
    23   11   12 ar   
    24   11   51 1    
    25   12   13 ar   
    26   12   62 1    
    27   13   14 ar   
    28   13   15 1    
    29   14   63 1    
    30   15   16 1    
    31   15   64 1    
    32   15   65 1    
    33   16   17 1    
    34   17   18 1    
    35   17   66 1    
    36   17   67 1    
    37   18   19 1    
    38   18   27 1    
    39   18   68 1    
    40   19   20 am   BACKBONE|DICT|INTERRES
    41   19   69 1    
    42   20   21 2    
    43   20   22 1    
    44   22   23 1    
    45   22   24 1    
    46   22   70 1    
    47   23   71 1    
    48   23   72 1    
    49   23   73 1    
    50   24   25 am   BACKBONE|DICT|INTERRES
    51   24   74 1    
    52   25   26 2    
    53   27   28 2    
    54   27   29 am   BACKBONE|DICT|INTERRES
    55   29   30 1    
    56   29   75 1    
    57   30   31 1    
    58   30   32 1    
    59   30   76 1    
    60   31   77 1    
    61   31   78 1    
    62   31   79 1    
    63   32   33 2    
    64   32   34 am   BACKBONE|DICT|INTERRES
    65   34   35 1    
    66   34   80 1    
    67   35   36 1    
    68   35   37 1    
    69   35   81 1    
    70   36   82 1    
    71   36   83 1    
    72   36   84 1    
    73   37   38 2    
    74   37   39 am   BACKBONE|DICT|INTERRES
    75   39   40 1    
    76   39   85 1    
    77   40   41 1    
    78   40   42 1    
    79   40   86 1    
    80   41   87 1    
    81   41   88 1    
    82   41   89 1    
    83   42   43 2    
    84   42   44 am   BACKBONE|DICT|INTERRES
    85   44   45 1    
    86   44   90 1    
    87   45   46 1    
    88   45   49 1    
    89   45   91 1    
    90   46   47 am   BACKBONE|DICT|INTERRES
    91   46   48 2    
    92   47   92 1    
    93   47   93 1    
    94   49   50 1    
    95   49   94 1    
    96   49   95 1    
    97   50   51 1    
    98   51   96 1    
    99   51   97 1    
@<TRIPOS>SUBSTRUCTURE
     1 UNK         1 GROUP             0       ****    0 ROOT    
