@<TRIPOS>MOLECULE
3R0
97   99    1
SMALL
USER_CHARGES


@<TRIPOS>ATOM
      1 CA         19.4316   54.3945    8.3865 C.3       0 UNK        -0.2006 
      2 C          18.7852   53.7092    9.5788 C.2       0 UNK         0.4864 
      3 O          19.0867   54.0463   10.7223 O.2       0 UNK        -0.5092 
      4 N          17.8712   52.7625    9.3288 N.am      1 UNK        -0.4825 
      5 CA         17.2478   51.9007   10.3471 C.3       1 UNK         0.0812 
      6 C6         16.8040   50.5289    9.7770 C.3       8 UNK        -0.0932 
      7 S7         18.1731   49.6477    8.9482 S.3       8 UNK        -0.2545 
      8 C8         18.8530   48.6271   10.2994 C.3       8 UNK         0.0228 
      9 C9         19.4489   49.4669   11.4232 C.ar      8 UNK        -0.0842 
     10 C10        20.6100   50.2181   11.2071 C.ar      8 UNK        -0.0874 
     11 C11        21.1539   51.0004   12.2322 C.ar      8 UNK        -0.0867 
     12 C12        20.5414   50.9985   13.4900 C.ar      8 UNK        -0.1042 
     13 C13        19.3640   50.2827   13.7088 C.ar      8 UNK        -0.0824 
     14 C14        18.8275   49.5085   12.6757 C.ar      8 UNK        -0.1194 
     15 C15        18.6602   50.3625   15.0540 C.3       8 UNK         0.0180 
     16 S16        17.3792   51.6578   15.0500 S.3       8 UNK        -0.2273 
     17 C17        18.2922   53.1731   15.5240 C.3       8 UNK        -0.0981 
     18 CA         18.7442   54.0746   14.3337 C.3       3 UNK         0.0747 
     19 N          17.7123   54.3194   13.3235 N.am      3 UNK        -0.4794 
     20 C          16.4560   54.7609   13.4917 C.2       2 UNK         0.5067 
     21 O          15.9827   55.1214   14.5694 O.2       2 UNK        -0.4802 
     22 CA         15.5516   54.7595   12.2368 C.3       2 UNK         0.0370 
     23 CB         15.3351   56.1880   11.7145 C.3       2 UNK        -0.1774 
     24 N          16.1098   53.9303   11.1632 N.am      2 UNK        -0.4750 
     25 C          16.1467   52.5898   11.1869 C.2       1 UNK         0.5001 
     26 O          15.3989   51.9096   11.8904 O.2       1 UNK        -0.4889 
     27 C          19.4204   55.3808   14.8063 C.2       3 UNK         0.4972 
     28 O          19.0075   56.4807   14.4269 O.2       3 UNK        -0.4802 
     29 N          20.4704   55.2310   15.6295 N.am      4 UNK        -0.4926 
     30 CA         21.2856   56.2973   16.2226 C.3       4 UNK         0.0426 
     31 CB         20.4718   57.0699   17.2865 C.3       4 UNK        -0.1835 
     32 C          21.9376   57.1875   15.1448 C.2       4 UNK         0.5138 
     33 O          22.6801   56.6677   14.3104 O.2       4 UNK        -0.5194 
     34 N          21.6437   58.4956   15.1589 N.am      5 UNK        -0.4222 
     35 CA         22.1775   59.4994   14.2312 C.3       5 UNK         0.0221 
     36 CB         21.6661   60.8896   14.6427 C.3       5 UNK        -0.2034 
     37 C          21.8676   59.2318   12.7466 C.2       5 UNK         0.4987 
     38 O          22.6308   59.6770   11.8881 O.2       5 UNK        -0.5478 
     39 N          20.7867   58.4896   12.4623 N.am      6 UNK        -0.4365 
     40 CA         20.4025   58.0698   11.1118 C.3       6 UNK         0.0273 
     41 CB         18.9886   57.4714   11.1483 C.3       6 UNK        -0.1956 
     42 C          21.3921   57.0839   10.4610 C.2       6 UNK         0.4962 
     43 O          21.4135   56.9924    9.2328 O.2       6 UNK        -0.5385 
     44 N          22.1985   56.3845   11.2714 N.am      7 UNK        -0.4054 
     45 CA         23.2413   55.4547   10.8097 C.3       7 UNK         0.0701 
     46 C          24.5078   56.1534   10.2383 C.2       7 UNK         0.5602 
     47 N          24.6676   57.4660   10.3665 N.am      7 UNK        -0.7339 
     48 O          25.3625   55.4888    9.6581 O.2       7 UNK        -0.5126 
     49 C49        23.6237   54.4222   11.9042 C.3       8 UNK        -0.0906 
     50 S50        22.1687   53.5605   12.5830 S.3       8 UNK        -0.2590 
     51 C51        22.3906   51.8562   11.9750 C.3       8 UNK         0.0201 
     52 H52        20.5167   54.3364    8.4682 H         1 UNK         0.0901 
     53 H53        19.1508   55.4467    8.3589 H         1 UNK         0.0901 
     54 H54        19.1372   53.9363    7.4427 H         1 UNK         0.0901 
     55 H55        17.6416   52.5337    8.3718 H         1 UNK         0.3005 
     56 H56        18.0237   51.6946   11.0858 H         1 UNK         0.1258 
     57 H57        15.9956   50.6629    9.0563 H         1 UNK         0.0713 
     58 H58        16.4070   49.8855   10.5646 H         1 UNK         0.0713 
     59 H59        19.6290   47.9773    9.8924 H         1 UNK         0.0869 
     60 H60        18.0724   47.9652   10.6777 H         1 UNK         0.0869 
     61 H61        21.0765   50.2050   10.2313 H         1 UNK         0.1451 
     62 H62        20.9615   51.5900   14.2916 H         1 UNK         0.1348 
     63 H63        17.9154   48.9522   12.8443 H         1 UNK         0.1248 
     64 H64        18.1852   49.4049   15.2724 H         1 UNK         0.0802 
     65 H65        19.3745   50.5343   15.8604 H         1 UNK         0.0802 
     66 H66        19.1486   52.8806   16.1326 H         1 UNK         0.0831 
     67 H67        17.6423   53.7407   16.1922 H         1 UNK         0.0831 
     68 H68        19.5152   53.5335   13.7876 H         1 UNK         0.1266 
     69 H69        18.0202   54.1285   12.3753 H         1 UNK         0.2858 
     70 H70        14.5814   54.3518   12.5279 H         1 UNK         0.0493 
     71 H71        16.2685   56.6457   11.3894 H         1 UNK         0.0858 
     72 H72        14.6428   56.2021   10.8727 H         1 UNK         0.0858 
     73 H73        14.9127   56.8269   12.4912 H         1 UNK         0.0858 
     74 H74        16.7669   54.3855   10.5448 H         1 UNK         0.2998 
     75 H75        20.7808   54.2934   15.8417 H         1 UNK         0.2942 
     76 H76        22.1098   55.8025   16.7384 H         1 UNK         0.0588 
     77 H77        21.0892   57.8089   17.7991 H         1 UNK         0.0836 
     78 H78        20.0934   56.3926   18.0522 H         1 UNK         0.0836 
     79 H79        19.6127   57.5883   16.8589 H         1 UNK         0.0836 
     80 H80        21.0059   58.8294   15.8667 H         1 UNK         0.3003 
     81 H81        23.2648   59.4896   14.3346 H         1 UNK         0.0959 
     82 H82        20.5783   60.9515   14.5903 H         1 UNK         0.0808 
     83 H83        21.9700   61.1412   15.6591 H         1 UNK         0.0808 
     84 H84        22.0681   61.6634   13.9867 H         1 UNK         0.0808 
     85 H85        20.2229   58.1372   13.2265 H         1 UNK         0.3181 
     86 H86        20.3765   58.9624   10.4831 H         1 UNK         0.0819 
     87 H87        18.2688   58.1753   11.5659 H         1 UNK         0.0823 
     88 H88        18.6479   57.2141   10.1449 H         1 UNK         0.0823 
     89 H89        18.9547   56.5599   11.7451 H         1 UNK         0.0823 
     90 H90        22.1434   56.5167   12.2751 H         1 UNK         0.3159 
     91 H91        22.8210   54.8926    9.9740 H         1 UNK         0.0870 
     92 H92        25.4932   57.9005    9.9858 H         1 UNK         0.3462 
     93 H93        23.9695   58.0300   10.8308 H         1 UNK         0.3462 
     94 H94        24.3279   53.6859   11.5121 H         1 UNK         0.0763 
     95 H95        24.1340   54.9184   12.7317 H         1 UNK         0.0763 
     96 H96        22.6147   51.8911   10.9077 H         1 UNK         0.0881 
     97 H97        23.2524   51.4031   12.4665 H         1 UNK         0.0881 
@<TRIPOS>BOND
     1    1    2 1    
     2    1   52 1    
     3    1   53 1    
     4    1   54 1    
     5    2    3 2    
     6    2    4 am   BACKBONE|DICT|INTERRES
     7    4    5 1    
     8    4   55 1    
     9    5    6 1    
    10    5   25 1    
    11    5   56 1    
    12    6    7 1    
    13    6   57 1    
    14    6   58 1    
    15    7    8 1    
    16    8    9 1    
    17    8   59 1    
    18    8   60 1    
    19    9   10 ar   
    20    9   14 ar   
    21   10   11 ar   
    22   10   61 1    
    23   11   12 ar   
    24   11   51 1    
    25   12   13 ar   
    26   12   62 1    
    27   13   14 ar   
    28   13   15 1    
    29   14   63 1    
    30   15   16 1    
    31   15   64 1    
    32   15   65 1    
    33   16   17 1    
    34   17   18 1    
    35   17   66 1    
    36   17   67 1    
    37   18   19 1    
    38   18   27 1    
    39   18   68 1    
    40   19   20 am   BACKBONE|DICT|INTERRES
    41   19   69 1    
    42   20   21 2    
    43   20   22 1    
    44   22   23 1    
    45   22   24 1    
    46   22   70 1    
    47   23   71 1    
    48   23   72 1    
    49   23   73 1    
    50   24   25 am   BACKBONE|DICT|INTERRES
    51   24   74 1    
    52   25   26 2    
    53   27   28 2    
    54   27   29 am   BACKBONE|DICT|INTERRES
    55   29   30 1    
    56   29   75 1    
    57   30   31 1    
    58   30   32 1    
    59   30   76 1    
    60   31   77 1    
    61   31   78 1    
    62   31   79 1    
    63   32   33 2    
    64   32   34 am   BACKBONE|DICT|INTERRES
    65   34   35 1    
    66   34   80 1    
    67   35   36 1    
    68   35   37 1    
    69   35   81 1    
    70   36   82 1    
    71   36   83 1    
    72   36   84 1    
    73   37   38 2    
    74   37   39 am   BACKBONE|DICT|INTERRES
    75   39   40 1    
    76   39   85 1    
    77   40   41 1    
    78   40   42 1    
    79   40   86 1    
    80   41   87 1    
    81   41   88 1    
    82   41   89 1    
    83   42   43 2    
    84   42   44 am   BACKBONE|DICT|INTERRES
    85   44   45 1    
    86   44   90 1    
    87   45   46 1    
    88   45   49 1    
    89   45   91 1    
    90   46   47 am   BACKBONE|DICT|INTERRES
    91   46   48 2    
    92   47   92 1    
    93   47   93 1    
    94   49   50 1    
    95   49   94 1    
    96   49   95 1    
    97   50   51 1    
    98   51   96 1    
    99   51   97 1    
@<TRIPOS>SUBSTRUCTURE
     1 UNK         1 GROUP             0       ****    0 ROOT    
