@<TRIPOS>MOLECULE
3R0
97   99    1
SMALL
USER_CHARGES


@<TRIPOS>ATOM
      1 CA         22.0623   48.4392    8.9263 C.3       0 UNK        -0.2006 
      2 C          20.9367   48.5501    9.9435 C.2       0 UNK         0.4864 
      3 O          21.0695   48.0526   11.0617 O.2       0 UNK        -0.5092 
      4 N          19.8279   49.1991    9.5650 N.am      1 UNK        -0.4825 
      5 CA         18.6539   49.4221   10.4209 C.3       1 UNK         0.0812 
      6 C6         17.3924   49.7464    9.5803 C.3       8 UNK        -0.0932 
      7 S7         17.5490   51.2499    8.5474 S.3       8 UNK        -0.2545 
      8 C8         16.0117   52.1440    8.9393 C.3       8 UNK         0.0228 
      9 C9         16.1079   52.9920   10.2033 C.ar      8 UNK        -0.0842 
     10 C10        16.6161   54.2942   10.1341 C.ar      8 UNK        -0.0874 
     11 C11        16.5857   55.1292   11.2560 C.ar      8 UNK        -0.0867 
     12 C12        16.0612   54.6468   12.4576 C.ar      8 UNK        -0.1042 
     13 C13        15.5728   53.3412   12.5494 C.ar      8 UNK        -0.0824 
     14 C14        15.6031   52.5165   11.4191 C.ar      8 UNK        -0.1194 
     15 C15        14.9360   52.8524   13.8445 C.3       8 UNK         0.0180 
     16 S16        16.1099   51.9882   14.9354 S.3       8 UNK        -0.2273 
     17 C17        17.0773   53.3593   15.6566 C.3       8 UNK        -0.0981 
     18 CA         18.5985   53.1867   15.4266 C.3       3 UNK         0.0747 
     19 N          18.9378   53.1409   13.9995 N.am      3 UNK        -0.4794 
     20 C          20.0400   52.5684   13.5017 C.2       2 UNK         0.5067 
     21 O          20.9054   52.0202   14.1866 O.2       2 UNK        -0.4802 
     22 CA         20.1931   52.6237   11.9723 C.3       2 UNK         0.0370 
     23 CB         21.6256   53.0332   11.5806 C.3       2 UNK        -0.1774 
     24 N          19.8553   51.3887   11.2590 N.am      2 UNK        -0.4750 
     25 C          18.8837   50.4940   11.5068 C.2       1 UNK         0.5001 
     26 O          18.1634   50.4831   12.5031 O.2       1 UNK        -0.4889 
     27 C          19.3961   54.2690   16.1859 C.2       3 UNK         0.4972 
     28 O          19.4562   54.2202   17.4150 O.2       3 UNK        -0.4802 
     29 N          19.9955   55.2162   15.4554 N.am      4 UNK        -0.4926 
     30 CA         20.8760   56.2650   15.9580 C.3       4 UNK         0.0426 
     31 CB         20.0587   57.5479   16.1861 C.3       4 UNK        -0.1835 
     32 C          21.9817   56.5002   14.9234 C.2       4 UNK         0.5138 
     33 O          21.7840   56.1978   13.7443 O.2       4 UNK        -0.5194 
     34 N          23.1087   57.0775   15.3625 N.am      5 UNK        -0.4222 
     35 CA         24.2713   57.3911   14.5178 C.3       5 UNK         0.0221 
     36 CB         25.4005   57.9622   15.3906 C.3       5 UNK        -0.2034 
     37 C          23.9581   58.3446   13.3493 C.2       5 UNK         0.4987 
     38 O          24.5650   58.2213   12.2846 O.2       5 UNK        -0.5478 
     39 N          22.9788   59.2384   13.5497 N.am      6 UNK        -0.4365 
     40 CA         22.4363   60.1486   12.5370 C.3       6 UNK         0.0273 
     41 CB         21.4584   61.1233   13.2139 C.3       6 UNK        -0.1956 
     42 C          21.7504   59.4400   11.3516 C.2       6 UNK         0.4962 
     43 O          21.6206   60.0521   10.2902 O.2       6 UNK        -0.5385 
     44 N          21.3312   58.1812   11.5375 N.am      7 UNK        -0.4054 
     45 CA         20.7562   57.3297   10.4866 C.3       7 UNK         0.0701 
     46 C          21.8187   56.7123    9.5333 C.2       7 UNK         0.5602 
     47 N          23.1147   56.8254    9.8041 N.am      7 UNK        -0.7339 
     48 O          21.4577   56.1230    8.5182 O.2       7 UNK        -0.5126 
     49 C49        19.8405   56.2279   11.0797 C.3       8 UNK        -0.0906 
     50 S50        18.5325   56.8861   12.1650 S.3       8 UNK        -0.2590 
     51 C51        17.0463   56.5776   11.1636 C.3       8 UNK         0.0201 
     52 H52        21.8073   48.9190    7.9815 H         1 UNK         0.0901 
     53 H53        22.2840   47.3915    8.7252 H         1 UNK         0.0901 
     54 H54        22.9654   48.9105    9.3133 H         1 UNK         0.0901 
     55 H55        19.7619   49.5840    8.6324 H         1 UNK         0.3005 
     56 H56        18.4568   48.4899   10.9563 H         1 UNK         0.1258 
     57 H57        17.1730   48.9090    8.9163 H         1 UNK         0.0713 
     58 H58        16.5215   49.8328   10.2323 H         1 UNK         0.0713 
     59 H59        15.7696   52.7909    8.0948 H         1 UNK         0.0869 
     60 H60        15.1824   51.4386    9.0121 H         1 UNK         0.0869 
     61 H61        16.9949   54.6697    9.1932 H         1 UNK         0.1451 
     62 H62        16.0108   55.3048   13.3140 H         1 UNK         0.1348 
     63 H63        15.1988   51.5154   11.4791 H         1 UNK         0.1248 
     64 H64        14.1195   52.1682   13.6091 H         1 UNK         0.0802 
     65 H65        14.4796   53.6834   14.3846 H         1 UNK         0.0802 
     66 H66        16.8549   53.3808   16.7253 H         1 UNK         0.0831 
     67 H67        16.7338   54.3157   15.2624 H         1 UNK         0.0831 
     68 H68        18.8910   52.2313   15.8694 H         1 UNK         0.1266 
     69 H69        18.2453   53.5115   13.3630 H         1 UNK         0.2858 
     70 H70        19.5077   53.3852   11.5973 H         1 UNK         0.0493 
     71 H71        22.3356   52.2248   11.7589 H         1 UNK         0.0858 
     72 H72        21.6881   53.3109   10.5283 H         1 UNK         0.0858 
     73 H73        21.9703   53.8898   12.1617 H         1 UNK         0.0858 
     74 H74        20.3636   51.2395   10.4000 H         1 UNK         0.2998 
     75 H75        19.9476   55.1595   14.4452 H         1 UNK         0.2942 
     76 H76        21.3406   55.9490   16.8943 H         1 UNK         0.0588 
     77 H77        20.6854   58.3538   16.5696 H         1 UNK         0.0836 
     78 H78        19.2630   57.3850   16.9131 H         1 UNK         0.0836 
     79 H79        19.5982   57.9006   15.2619 H         1 UNK         0.0836 
     80 H80        23.1895   57.2990   16.3449 H         1 UNK         0.3003 
     81 H81        24.6178   56.4524   14.0797 H         1 UNK         0.0959 
     82 H82        25.7057   57.2531   16.1604 H         1 UNK         0.0808 
     83 H83        26.2838   58.1834   14.7895 H         1 UNK         0.0808 
     84 H84        25.1023   58.8881   15.8841 H         1 UNK         0.0808 
     85 H85        22.5461   59.2664   14.4613 H         1 UNK         0.3181 
     86 H86        23.2702   60.7241   12.1296 H         1 UNK         0.0819 
     87 H87        20.6094   60.6010   13.6572 H         1 UNK         0.0823 
     88 H88        21.9486   61.6991   13.9992 H         1 UNK         0.0823 
     89 H89        21.0592   61.8387   12.4933 H         1 UNK         0.0823 
     90 H90        21.4917   57.7201   12.4263 H         1 UNK         0.3159 
     91 H91        20.1305   57.9609    9.8535 H         1 UNK         0.0870 
     92 H92        23.7843   56.4215    9.1691 H         1 UNK         0.3462 
     93 H93        23.4370   57.3127   10.6304 H         1 UNK         0.3462 
     94 H94        20.4336   55.5383   11.6743 H         1 UNK         0.0763 
     95 H95        19.3893   55.6300   10.2857 H         1 UNK         0.0763 
     96 H96        16.2447   57.2252   11.5217 H         1 UNK         0.0881 
     97 H97        17.2313   56.8714   10.1291 H         1 UNK         0.0881 
@<TRIPOS>BOND
     1    1    2 1    
     2    1   52 1    
     3    1   53 1    
     4    1   54 1    
     5    2    3 2    
     6    2    4 am   BACKBONE|DICT|INTERRES
     7    4    5 1    
     8    4   55 1    
     9    5    6 1    
    10    5   25 1    
    11    5   56 1    
    12    6    7 1    
    13    6   57 1    
    14    6   58 1    
    15    7    8 1    
    16    8    9 1    
    17    8   59 1    
    18    8   60 1    
    19    9   10 ar   
    20    9   14 ar   
    21   10   11 ar   
    22   10   61 1    
    23   11   12 ar   
    24   11   51 1    
    25   12   13 ar   
    26   12   62 1    
    27   13   14 ar   
    28   13   15 1    
    29   14   63 1    
    30   15   16 1    
    31   15   64 1    
    32   15   65 1    
    33   16   17 1    
    34   17   18 1    
    35   17   66 1    
    36   17   67 1    
    37   18   19 1    
    38   18   27 1    
    39   18   68 1    
    40   19   20 am   BACKBONE|DICT|INTERRES
    41   19   69 1    
    42   20   21 2    
    43   20   22 1    
    44   22   23 1    
    45   22   24 1    
    46   22   70 1    
    47   23   71 1    
    48   23   72 1    
    49   23   73 1    
    50   24   25 am   BACKBONE|DICT|INTERRES
    51   24   74 1    
    52   25   26 2    
    53   27   28 2    
    54   27   29 am   BACKBONE|DICT|INTERRES
    55   29   30 1    
    56   29   75 1    
    57   30   31 1    
    58   30   32 1    
    59   30   76 1    
    60   31   77 1    
    61   31   78 1    
    62   31   79 1    
    63   32   33 2    
    64   32   34 am   BACKBONE|DICT|INTERRES
    65   34   35 1    
    66   34   80 1    
    67   35   36 1    
    68   35   37 1    
    69   35   81 1    
    70   36   82 1    
    71   36   83 1    
    72   36   84 1    
    73   37   38 2    
    74   37   39 am   BACKBONE|DICT|INTERRES
    75   39   40 1    
    76   39   85 1    
    77   40   41 1    
    78   40   42 1    
    79   40   86 1    
    80   41   87 1    
    81   41   88 1    
    82   41   89 1    
    83   42   43 2    
    84   42   44 am   BACKBONE|DICT|INTERRES
    85   44   45 1    
    86   44   90 1    
    87   45   46 1    
    88   45   49 1    
    89   45   91 1    
    90   46   47 am   BACKBONE|DICT|INTERRES
    91   46   48 2    
    92   47   92 1    
    93   47   93 1    
    94   49   50 1    
    95   49   94 1    
    96   49   95 1    
    97   50   51 1    
    98   51   96 1    
    99   51   97 1    
@<TRIPOS>SUBSTRUCTURE
     1 UNK         1 GROUP             0       ****    0 ROOT    
