@<TRIPOS>MOLECULE
3R0
97   99    1
SMALL
USER_CHARGES


@<TRIPOS>ATOM
      1 CA         14.9086   53.7138    6.9597 C.3       0 UNK        -0.2006 
      2 C          15.8594   54.3675    7.9509 C.2       0 UNK         0.4864 
      3 O          15.7738   55.5747    8.1764 O.2       0 UNK        -0.5092 
      4 N          16.7681   53.5796    8.5402 N.am      1 UNK        -0.4825 
      5 CA         17.7378   54.0197    9.5512 C.3       1 UNK         0.0812 
      6 C6         18.8668   52.9776    9.7665 C.3       8 UNK        -0.0932 
      7 S7         18.2650   51.2850   10.0963 S.3       8 UNK        -0.2545 
      8 C8         19.8304   50.3934   10.3604 C.3       8 UNK         0.0228 
      9 C9         20.4059   50.6319   11.7501 C.ar      8 UNK        -0.0842 
     10 C10        21.6683   51.2111   11.9074 C.ar      8 UNK        -0.0874 
     11 C11        22.2167   51.3901   13.1827 C.ar      8 UNK        -0.0867 
     12 C12        21.4787   50.9988   14.3066 C.ar      8 UNK        -0.1042 
     13 C13        20.2197   50.4048   14.1626 C.ar      8 UNK        -0.0824 
     14 C14        19.6953   50.2192   12.8801 C.ar      8 UNK        -0.1194 
     15 C15        19.4464   49.9190   15.3849 C.3       8 UNK         0.0180 
     16 S16        17.7471   50.5801   15.4633 S.3       8 UNK        -0.2273 
     17 C17        18.0395   52.3021   15.9860 C.3       8 UNK        -0.0981 
     18 CA         18.3200   53.2608   14.7974 C.3       3 UNK         0.0747 
     19 N          17.2899   53.2390   13.7513 N.am      3 UNK        -0.4794 
     20 C          16.0390   53.7123   13.8312 C.2       2 UNK         0.5067 
     21 O          15.5254   54.1130   14.8763 O.2       2 UNK        -0.4802 
     22 CA         15.2336   53.7777   12.5127 C.3       2 UNK         0.0370 
     23 CB         14.3721   55.0551   12.4363 C.3       2 UNK        -0.1774 
     24 N          16.0391   53.6410   11.2867 N.am      2 UNK        -0.4750 
     25 C          17.0698   54.4060   10.8860 C.2       1 UNK         0.5001 
     26 O          17.5125   55.3576   11.5296 O.2       1 UNK        -0.4889 
     27 C          18.6816   54.6935   15.2557 C.2       3 UNK         0.4972 
     28 O          19.1178   54.8815   16.3932 O.2       3 UNK        -0.4802 
     29 N          18.5186   55.6823   14.3622 N.am      4 UNK        -0.4926 
     30 CA         19.0063   57.0502   14.5443 C.3       4 UNK         0.0426 
     31 CB         18.3760   57.9523   13.4714 C.3       4 UNK        -0.1835 
     32 C          20.5400   57.0908   14.4467 C.2       4 UNK         0.5138 
     33 O          21.1269   56.2302   13.7879 O.2       4 UNK        -0.5194 
     34 N          21.1575   58.1093   15.0609 N.am      5 UNK        -0.4222 
     35 CA         22.6144   58.2825   15.1753 C.3       5 UNK         0.0221 
     36 CB         22.9069   59.5578   15.9835 C.3       5 UNK        -0.2034 
     37 C          23.3922   58.3028   13.8437 C.2       5 UNK         0.4987 
     38 O          24.5817   57.9838   13.8392 O.2       5 UNK        -0.5478 
     39 N          22.7162   58.6615   12.7441 N.am      6 UNK        -0.4365 
     40 CA         23.2480   58.5966   11.3819 C.3       6 UNK         0.0273 
     41 CB         22.3640   59.4506   10.4576 C.3       6 UNK        -0.1956 
     42 C          23.3677   57.1612   10.8311 C.2       6 UNK         0.4962 
     43 O          24.1700   56.9495    9.9204 O.2       6 UNK        -0.5385 
     44 N          22.5730   56.2172   11.3616 N.am      7 UNK        -0.4054 
     45 CA         22.5086   54.7983   10.9632 C.3       7 UNK         0.0701 
     46 C          22.1114   54.5428    9.4777 C.2       7 UNK         0.5602 
     47 N          21.4470   55.4752    8.8059 N.am      7 UNK        -0.7339 
     48 O          22.3607   53.4697    8.9350 O.2       7 UNK        -0.5126 
     49 C49        23.7666   54.0073   11.4247 C.3       8 UNK        -0.0906 
     50 S50        23.7510   53.7396   13.2310 S.3       8 UNK        -0.2590 
     51 C51        23.6372   51.9234   13.3488 C.3       8 UNK         0.0201 
     52 H52        15.0126   54.1768    5.9788 H         1 UNK         0.0901 
     53 H53        13.8778   53.8412    7.2894 H         1 UNK         0.0901 
     54 H54        15.1011   52.6464    6.8529 H         1 UNK         0.0901 
     55 H55        16.7998   52.5944    8.3155 H         1 UNK         0.3005 
     56 H56        18.2057   54.9329    9.1747 H         1 UNK         0.1258 
     57 H57        19.4909   52.9373    8.8725 H         1 UNK         0.0713 
     58 H58        19.5294   53.2836   10.5784 H         1 UNK         0.0713 
     59 H59        19.6489   49.3249   10.2367 H         1 UNK         0.0869 
     60 H60        20.5432   50.6735    9.5828 H         1 UNK         0.0869 
     61 H61        22.2341   51.4934   11.0313 H         1 UNK         0.1451 
     62 H62        21.9012   51.1258   15.2943 H         1 UNK         0.1348 
     63 H63        18.7285   49.7493   12.7597 H         1 UNK         0.1248 
     64 H64        19.3914   48.8304   15.3455 H         1 UNK         0.0802 
     65 H65        19.9730   50.1633   16.3086 H         1 UNK         0.0802 
     66 H66        17.1652   52.6394   16.5450 H         1 UNK         0.0831 
     67 H67        18.8695   52.3071   16.6947 H         1 UNK         0.0831 
     68 H68        19.2295   52.9132   14.3075 H         1 UNK         0.1266 
     69 H69        17.5998   52.9115   12.8479 H         1 UNK         0.2858 
     70 H70        14.5588   52.9209   12.5288 H         1 UNK         0.0493 
     71 H71        14.9835   55.9569   12.4830 H         1 UNK         0.0858 
     72 H72        13.7940   55.0900   11.5130 H         1 UNK         0.0858 
     73 H73        13.6615   55.1018   13.2622 H         1 UNK         0.0858 
     74 H74        15.7905   52.8652   10.6878 H         1 UNK         0.2998 
     75 H75        18.1697   55.4508   13.4371 H         1 UNK         0.2942 
     76 H76        18.7009   57.4034   15.5314 H         1 UNK         0.0588 
     77 H77        18.6601   58.9952   13.6161 H         1 UNK         0.0836 
     78 H78        17.2873   57.9063   13.5046 H         1 UNK         0.0836 
     79 H79        18.6899   57.6647   12.4669 H         1 UNK         0.0836 
     80 H80        20.5897   58.7811   15.5578 H         1 UNK         0.3003 
     81 H81        22.9909   57.4271   15.7404 H         1 UNK         0.0959 
     82 H82        22.4694   59.5070   16.9808 H         1 UNK         0.0808 
     83 H83        23.9808   59.7021   16.1120 H         1 UNK         0.0808 
     84 H84        22.5161   60.4476   15.4882 H         1 UNK         0.0808 
     85 H85        21.7489   58.9308   12.8472 H         1 UNK         0.3181 
     86 H86        24.2516   59.0279   11.3865 H         1 UNK         0.0819 
     87 H87        21.3379   59.0824   10.4226 H         1 UNK         0.0823 
     88 H88        22.3376   60.4907   10.7831 H         1 UNK         0.0823 
     89 H89        22.7474   59.4439    9.4360 H         1 UNK         0.0823 
     90 H90        21.9945   56.4492   12.1660 H         1 UNK         0.3159 
     91 H91        21.6572   54.3909   11.5093 H         1 UNK         0.0870 
     92 H92        21.2351   56.3620    9.2323 H         1 UNK         0.3462 
     93 H93        21.1931   55.3010    7.8468 H         1 UNK         0.3462 
     94 H94        23.8491   53.0413   10.9281 H         1 UNK         0.0763 
     95 H95        24.6793   54.5414   11.1573 H         1 UNK         0.0763 
     96 H96        24.2985   51.4599   12.6152 H         1 UNK         0.0881 
     97 H97        24.0300   51.6242   14.3218 H         1 UNK         0.0881 
@<TRIPOS>BOND
     1    1    2 1    
     2    1   52 1    
     3    1   53 1    
     4    1   54 1    
     5    2    3 2    
     6    2    4 am   BACKBONE|DICT|INTERRES
     7    4    5 1    
     8    4   55 1    
     9    5    6 1    
    10    5   25 1    
    11    5   56 1    
    12    6    7 1    
    13    6   57 1    
    14    6   58 1    
    15    7    8 1    
    16    8    9 1    
    17    8   59 1    
    18    8   60 1    
    19    9   10 ar   
    20    9   14 ar   
    21   10   11 ar   
    22   10   61 1    
    23   11   12 ar   
    24   11   51 1    
    25   12   13 ar   
    26   12   62 1    
    27   13   14 ar   
    28   13   15 1    
    29   14   63 1    
    30   15   16 1    
    31   15   64 1    
    32   15   65 1    
    33   16   17 1    
    34   17   18 1    
    35   17   66 1    
    36   17   67 1    
    37   18   19 1    
    38   18   27 1    
    39   18   68 1    
    40   19   20 am   BACKBONE|DICT|INTERRES
    41   19   69 1    
    42   20   21 2    
    43   20   22 1    
    44   22   23 1    
    45   22   24 1    
    46   22   70 1    
    47   23   71 1    
    48   23   72 1    
    49   23   73 1    
    50   24   25 am   BACKBONE|DICT|INTERRES
    51   24   74 1    
    52   25   26 2    
    53   27   28 2    
    54   27   29 am   BACKBONE|DICT|INTERRES
    55   29   30 1    
    56   29   75 1    
    57   30   31 1    
    58   30   32 1    
    59   30   76 1    
    60   31   77 1    
    61   31   78 1    
    62   31   79 1    
    63   32   33 2    
    64   32   34 am   BACKBONE|DICT|INTERRES
    65   34   35 1    
    66   34   80 1    
    67   35   36 1    
    68   35   37 1    
    69   35   81 1    
    70   36   82 1    
    71   36   83 1    
    72   36   84 1    
    73   37   38 2    
    74   37   39 am   BACKBONE|DICT|INTERRES
    75   39   40 1    
    76   39   85 1    
    77   40   41 1    
    78   40   42 1    
    79   40   86 1    
    80   41   87 1    
    81   41   88 1    
    82   41   89 1    
    83   42   43 2    
    84   42   44 am   BACKBONE|DICT|INTERRES
    85   44   45 1    
    86   44   90 1    
    87   45   46 1    
    88   45   49 1    
    89   45   91 1    
    90   46   47 am   BACKBONE|DICT|INTERRES
    91   46   48 2    
    92   47   92 1    
    93   47   93 1    
    94   49   50 1    
    95   49   94 1    
    96   49   95 1    
    97   50   51 1    
    98   51   96 1    
    99   51   97 1    
@<TRIPOS>SUBSTRUCTURE
     1 UNK         1 GROUP             0       ****    0 ROOT    
