@<TRIPOS>MOLECULE
3R0
97   99    1
SMALL
USER_CHARGES


@<TRIPOS>ATOM
      1 CA         14.1170   53.3976    7.4537 C.3       0 UNK        -0.2006 
      2 C          15.3894   53.9890    8.0415 C.2       0 UNK         0.4864 
      3 O          15.6134   55.1941    7.9275 O.2       0 UNK        -0.5092 
      4 N          16.2261   53.1478    8.6626 N.am      1 UNK        -0.4825 
      5 CA         17.4733   53.5355    9.3329 C.3       1 UNK         0.0812 
      6 C6         18.3747   52.3090    9.6482 C.3       8 UNK        -0.0932 
      7 S7         17.4957   50.9428   10.4900 S.3       8 UNK        -0.2545 
      8 C8         18.8114   49.6961   10.6596 C.3       8 UNK         0.0228 
      9 C9         19.7514   50.0184   11.8117 C.ar      8 UNK        -0.0842 
     10 C10        21.0748   50.3929   11.5682 C.ar      8 UNK        -0.0874 
     11 C11        21.9384   50.6855   12.6292 C.ar      8 UNK        -0.0867 
     12 C12        21.4657   50.6113   13.9443 C.ar      8 UNK        -0.1042 
     13 C13        20.1401   50.2397   14.1992 C.ar      8 UNK        -0.0824 
     14 C14        19.2964   49.9274   13.1290 C.ar      8 UNK        -0.1194 
     15 C15        19.6010   50.2015   15.6233 C.3       8 UNK         0.0180 
     16 S16        18.2158   51.3678   15.8590 S.3       8 UNK        -0.2273 
     17 C17        19.0594   52.9840   15.7990 C.3       8 UNK        -0.0981 
     18 CA         19.2456   53.5247   14.3532 C.3       3 UNK         0.0747 
     19 N          17.9909   53.6719   13.6123 N.am      3 UNK        -0.4794 
     20 C          17.0783   54.6493   13.7018 C.2       2 UNK         0.5067 
     21 O          17.1539   55.6005   14.4815 O.2       2 UNK        -0.4802 
     22 CA         15.8858   54.5306   12.7255 C.3       2 UNK         0.0370 
     23 CB         15.1063   55.8481   12.5413 C.3       2 UNK        -0.1774 
     24 N          16.2549   53.9610   11.4203 N.am      2 UNK        -0.4750 
     25 C          17.2209   54.3915   10.5903 C.2       1 UNK         0.5001 
     26 O          17.9023   55.3973   10.7846 O.2       1 UNK        -0.4889 
     27 C          20.1184   54.7910   14.2711 C.2       3 UNK         0.4972 
     28 O          20.6785   55.0630   13.2083 O.2       3 UNK        -0.4802 
     29 N          20.2166   55.5428   15.3779 N.am      4 UNK        -0.4926 
     30 CA         21.0639   56.7266   15.5595 C.3       4 UNK         0.0426 
     31 CB         20.8986   57.2436   16.9969 C.3       4 UNK        -0.1835 
     32 C          20.8354   57.8685   14.5517 C.2       4 UNK         0.5138 
     33 O          21.7420   58.6784   14.3587 O.2       4 UNK        -0.5194 
     34 N          19.6633   57.9030   13.9025 N.am      5 UNK        -0.4222 
     35 CA         19.3603   58.8272   12.8064 C.3       5 UNK         0.0221 
     36 CB         17.8728   58.7171   12.4452 C.3       5 UNK        -0.2034 
     37 C          20.2366   58.5992   11.5583 C.2       5 UNK         0.4987 
     38 O          20.5294   59.5659   10.8530 O.2       5 UNK        -0.5478 
     39 N          20.6467   57.3460   11.3180 N.am      6 UNK        -0.4365 
     40 CA         21.5517   56.9536   10.2365 C.3       6 UNK         0.0273 
     41 CB         20.9489   55.7614    9.4732 C.3       6 UNK        -0.1956 
     42 C          22.9435   56.5908   10.7743 C.2       6 UNK         0.4962 
     43 O          23.9434   57.0176   10.1950 O.2       6 UNK        -0.5385 
     44 N          22.9851   55.7987   11.8515 N.am      7 UNK        -0.4054 
     45 CA         24.2054   55.2154   12.4296 C.3       7 UNK         0.0701 
     46 C          24.8857   56.0849   13.5219 C.2       7 UNK         0.5602 
     47 N          24.3661   57.2510   13.8797 N.am      7 UNK        -0.7339 
     48 O          25.9283   55.7023   14.0466 O.2       7 UNK        -0.5126 
     49 C49        23.9470   53.7628   12.9153 C.3       8 UNK        -0.0906 
     50 S50        23.5314   52.6663   11.5189 S.3       8 UNK        -0.2590 
     51 C51        23.3881   51.0482   12.3405 C.3       8 UNK         0.0201 
     52 H52        13.2428   53.8646    7.9065 H         1 UNK         0.0901 
     53 H53        14.0518   52.3225    7.6203 H         1 UNK         0.0901 
     54 H54        14.0814   53.5769    6.3794 H         1 UNK         0.0901 
     55 H55        15.9954   52.1654    8.7232 H         1 UNK         0.3005 
     56 H56        18.0257   54.1752    8.6401 H         1 UNK         0.1258 
     57 H57        19.2403   52.6025   10.2465 H         1 UNK         0.0713 
     58 H58        18.7812   51.9162    8.7149 H         1 UNK         0.0713 
     59 H59        19.3550   49.6045    9.7179 H         1 UNK         0.0869 
     60 H60        18.3515   48.7236   10.8406 H         1 UNK         0.0869 
     61 H61        21.4390   50.4562   10.5516 H         1 UNK         0.1451 
     62 H62        22.1270   50.8465   14.7672 H         1 UNK         0.1348 
     63 H63        18.2710   49.6412   13.3211 H         1 UNK         0.1248 
     64 H64        19.2500   49.1916   15.8391 H         1 UNK         0.0802 
     65 H65        20.3858   50.4157   16.3504 H         1 UNK         0.0802 
     66 H66        20.0220   52.8860   16.3050 H         1 UNK         0.0831 
     67 H67        18.4654   53.6797   16.3942 H         1 UNK         0.0831 
     68 H68        19.8143   52.7899   13.7879 H         1 UNK         0.1266 
     69 H69        17.8248   52.9569   12.9186 H         1 UNK         0.2858 
     70 H70        15.2044   53.8143   13.1865 H         1 UNK         0.0493 
     71 H71        15.6965   56.6022   12.0248 H         1 UNK         0.0858 
     72 H72        14.1985   55.6876   11.9602 H         1 UNK         0.0858 
     73 H73        14.8023   56.2683   13.5008 H         1 UNK         0.0858 
     74 H74        15.7717   53.1125   11.1583 H         1 UNK         0.2998 
     75 H75        19.6736   55.2647   16.1826 H         1 UNK         0.2942 
     76 H76        22.0972   56.3971   15.4363 H         1 UNK         0.0588 
     77 H77        21.5406   58.1070   17.1783 H         1 UNK         0.0836 
     78 H78        21.1716   56.4829   17.7284 H         1 UNK         0.0836 
     79 H79        19.8723   57.5533   17.1984 H         1 UNK         0.0836 
     80 H80        18.9701   57.1995   14.1242 H         1 UNK         0.3003 
     81 H81        19.5530   59.8413   13.1634 H         1 UNK         0.0959 
     82 H82        17.6403   57.7287   12.0524 H         1 UNK         0.0808 
     83 H83        17.2336   58.8981   13.3095 H         1 UNK         0.0808 
     84 H84        17.6017   59.4445   11.6789 H         1 UNK         0.0808 
     85 H85        20.3524   56.6106   11.9524 H         1 UNK         0.3181 
     86 H86        21.6764   57.7748    9.5275 H         1 UNK         0.0819 
     87 H87        20.7681   54.9079   10.1284 H         1 UNK         0.0823 
     88 H88        20.0001   56.0324    9.0101 H         1 UNK         0.0823 
     89 H89        21.6153   55.4279    8.6765 H         1 UNK         0.0823 
     90 H90        22.1144   55.4942   12.2814 H         1 UNK         0.3159 
     91 H91        24.9556   55.1548   11.6391 H         1 UNK         0.0870 
     92 H92        23.5063   57.5949   13.4784 H         1 UNK         0.3462 
     93 H93        24.8376   57.7977   14.5821 H         1 UNK         0.3462 
     94 H94        24.8328   53.3534   13.4049 H         1 UNK         0.0763 
     95 H95        23.1421   53.7330   13.6519 H         1 UNK         0.0763 
     96 H96        23.8165   50.2874   11.6864 H         1 UNK         0.0881 
     97 H97        23.9882   51.0319   13.2516 H         1 UNK         0.0881 
@<TRIPOS>BOND
     1    1    2 1    
     2    1   52 1    
     3    1   53 1    
     4    1   54 1    
     5    2    3 2    
     6    2    4 am   BACKBONE|DICT|INTERRES
     7    4    5 1    
     8    4   55 1    
     9    5    6 1    
    10    5   25 1    
    11    5   56 1    
    12    6    7 1    
    13    6   57 1    
    14    6   58 1    
    15    7    8 1    
    16    8    9 1    
    17    8   59 1    
    18    8   60 1    
    19    9   10 ar   
    20    9   14 ar   
    21   10   11 ar   
    22   10   61 1    
    23   11   12 ar   
    24   11   51 1    
    25   12   13 ar   
    26   12   62 1    
    27   13   14 ar   
    28   13   15 1    
    29   14   63 1    
    30   15   16 1    
    31   15   64 1    
    32   15   65 1    
    33   16   17 1    
    34   17   18 1    
    35   17   66 1    
    36   17   67 1    
    37   18   19 1    
    38   18   27 1    
    39   18   68 1    
    40   19   20 am   BACKBONE|DICT|INTERRES
    41   19   69 1    
    42   20   21 2    
    43   20   22 1    
    44   22   23 1    
    45   22   24 1    
    46   22   70 1    
    47   23   71 1    
    48   23   72 1    
    49   23   73 1    
    50   24   25 am   BACKBONE|DICT|INTERRES
    51   24   74 1    
    52   25   26 2    
    53   27   28 2    
    54   27   29 am   BACKBONE|DICT|INTERRES
    55   29   30 1    
    56   29   75 1    
    57   30   31 1    
    58   30   32 1    
    59   30   76 1    
    60   31   77 1    
    61   31   78 1    
    62   31   79 1    
    63   32   33 2    
    64   32   34 am   BACKBONE|DICT|INTERRES
    65   34   35 1    
    66   34   80 1    
    67   35   36 1    
    68   35   37 1    
    69   35   81 1    
    70   36   82 1    
    71   36   83 1    
    72   36   84 1    
    73   37   38 2    
    74   37   39 am   BACKBONE|DICT|INTERRES
    75   39   40 1    
    76   39   85 1    
    77   40   41 1    
    78   40   42 1    
    79   40   86 1    
    80   41   87 1    
    81   41   88 1    
    82   41   89 1    
    83   42   43 2    
    84   42   44 am   BACKBONE|DICT|INTERRES
    85   44   45 1    
    86   44   90 1    
    87   45   46 1    
    88   45   49 1    
    89   45   91 1    
    90   46   47 am   BACKBONE|DICT|INTERRES
    91   46   48 2    
    92   47   92 1    
    93   47   93 1    
    94   49   50 1    
    95   49   94 1    
    96   49   95 1    
    97   50   51 1    
    98   51   96 1    
    99   51   97 1    
@<TRIPOS>SUBSTRUCTURE
     1 UNK         1 GROUP             0       ****    0 ROOT    
