@<TRIPOS>MOLECULE
3R0
97   99    1
SMALL
USER_CHARGES


@<TRIPOS>ATOM
      1 CA         12.4404   51.9736    9.8140 C.3       0 UNK        -0.2006 
      2 C          13.7507   52.6181    9.3871 C.2       0 UNK         0.4864 
      3 O          13.7390   53.5634    8.5985 O.2       0 UNK        -0.5092 
      4 N          14.8808   52.1111    9.8987 N.am      1 UNK        -0.4825 
      5 CA         16.2291   52.6203    9.6127 C.3       1 UNK         0.0812 
      6 C6         17.3117   51.5974   10.0431 C.3       8 UNK        -0.0932 
      7 S7         18.8802   51.7898    9.1305 S.3       8 UNK        -0.2545 
      8 C8         19.7822   50.2915    9.6412 C.3       8 UNK         0.0228 
      9 C9         20.4548   50.4597   10.9973 C.ar      8 UNK        -0.0842 
     10 C10        21.8166   50.7667   11.0782 C.ar      8 UNK        -0.0874 
     11 C11        22.4483   50.8871   12.3211 C.ar      8 UNK        -0.0867 
     12 C12        21.6977   50.7343   13.4918 C.ar      8 UNK        -0.1042 
     13 C13        20.3367   50.4183   13.4226 C.ar      8 UNK        -0.0824 
     14 C14        19.7276   50.2675   12.1742 C.ar      8 UNK        -0.1194 
     15 C15        19.5254   50.1895   14.6896 C.3       8 UNK         0.0180 
     16 S16        18.2118   51.4335   14.8964 S.3       8 UNK        -0.2273 
     17 C17        19.1720   52.9170   15.3465 C.3       8 UNK        -0.0981 
     18 CA         19.2369   53.9710   14.2131 C.3       3 UNK         0.0747 
     19 N          17.8986   54.3421   13.7245 N.am      3 UNK        -0.4794 
     20 C          17.5921   55.3169   12.8568 C.2       2 UNK         0.5067 
     21 O          18.4010   56.1346   12.4185 O.2       2 UNK        -0.4802 
     22 CA         16.1335   55.3352   12.3705 C.3       2 UNK         0.0370 
     23 CB         15.7237   56.6867   11.7473 C.3       2 UNK        -0.1774 
     24 N          15.8946   54.2169   11.4502 N.am      2 UNK        -0.4750 
     25 C          16.4878   53.9963   10.2631 C.2       1 UNK         0.5001 
     26 O          17.2126   54.8069    9.6865 O.2       1 UNK        -0.4889 
     27 C          20.0918   55.1665   14.6768 C.2       3 UNK         0.4972 
     28 O          21.2671   55.2414   14.3241 O.2       3 UNK        -0.4802 
     29 N          19.4749   56.0939   15.4239 N.am      4 UNK        -0.4926 
     30 CA         20.1120   57.3065   15.9471 C.3       4 UNK         0.0426 
     31 CB         19.1769   57.9647   16.9737 C.3       4 UNK        -0.1835 
     32 C          20.5185   58.3232   14.8635 C.2       4 UNK         0.5138 
     33 O          21.4603   59.0849   15.0839 O.2       4 UNK        -0.5194 
     34 N          19.8180   58.3186   13.7221 N.am      5 UNK        -0.4222 
     35 CA         20.1383   59.1416   12.5558 C.3       5 UNK         0.0221 
     36 CB         18.8430   59.5258   11.8203 C.3       5 UNK        -0.2034 
     37 C          21.1032   58.4065   11.6146 C.2       5 UNK         0.4987 
     38 O          22.0470   59.0222   11.1189 O.2       5 UNK        -0.5478 
     39 N          20.8525   57.1089   11.3887 N.am      6 UNK        -0.4365 
     40 CA         21.6378   56.2393   10.5106 C.3       6 UNK         0.0273 
     41 CB         20.8928   54.9083   10.3073 C.3       6 UNK        -0.1956 
     42 C          23.0635   55.9805   11.0223 C.2       6 UNK         0.4962 
     43 O          24.0087   56.0568   10.2351 O.2       6 UNK        -0.5385 
     44 N          23.1833   55.6703   12.3172 N.am      7 UNK        -0.4054 
     45 CA         24.4232   55.2581   12.9903 C.3       7 UNK         0.0701 
     46 C          24.7414   56.1107   14.2496 C.2       7 UNK         0.5602 
     47 N          24.0505   57.2149   14.5013 N.am      7 UNK        -0.7339 
     48 O          25.6551   55.7848   15.0035 O.2       7 UNK        -0.5126 
     49 C49        24.4082   53.7337   13.2949 C.3       8 UNK        -0.0906 
     50 S50        24.4616   52.7333   11.7719 S.3       8 UNK        -0.2590 
     51 C51        23.9551   51.0999   12.3889 C.3       8 UNK         0.0201 
     52 H52        11.8030   52.7092   10.3038 H         1 UNK         0.0901 
     53 H53        12.5980   51.1467   10.5062 H         1 UNK         0.0901 
     54 H54        11.9102   51.5896    8.9428 H         1 UNK         0.0901 
     55 H55        14.8286   51.3239   10.5303 H         1 UNK         0.3005 
     56 H56        16.2955   52.7601    8.5307 H         1 UNK         0.1258 
     57 H57        16.9574   50.5822    9.8563 H         1 UNK         0.0713 
     58 H58        17.5018   51.6601   11.1157 H         1 UNK         0.0713 
     59 H59        20.5310   50.0639    8.8809 H         1 UNK         0.0869 
     60 H60        19.1067   49.4349    9.6591 H         1 UNK         0.0869 
     61 H61        22.3954   50.8894   10.1726 H         1 UNK         0.1451 
     62 H62        22.1805   50.8244   14.4554 H         1 UNK         0.1348 
     63 H63        18.6821   49.9976   12.1237 H         1 UNK         0.1248 
     64 H64        19.0650   49.2019   14.6389 H         1 UNK         0.0802 
     65 H65        20.1643   50.1806   15.5740 H         1 UNK         0.0802 
     66 H66        20.1781   52.6151   15.6451 H         1 UNK         0.0831 
     67 H67        18.7107   53.3438   16.2394 H         1 UNK         0.0831 
     68 H68        19.7604   53.5200   13.3668 H         1 UNK         0.1266 
     69 H69        17.1601   53.7147   14.0087 H         1 UNK         0.2858 
     70 H70        15.4976   55.1699   13.2415 H         1 UNK         0.0493 
     71 H71        16.3358   56.9490   10.8842 H         1 UNK         0.0858 
     72 H72        15.8319   57.4944   12.4720 H         1 UNK         0.0858 
     73 H73        14.6824   56.6750   11.4263 H         1 UNK         0.0858 
     74 H74        15.3028   53.4793   11.8061 H         1 UNK         0.2998 
     75 H75        18.4991   55.9564   15.6466 H         1 UNK         0.2942 
     76 H76        21.0252   57.0042   16.4646 H         1 UNK         0.0588 
     77 H77        18.2322   58.2709   16.5225 H         1 UNK         0.0836 
     78 H78        19.6358   58.8560   17.4040 H         1 UNK         0.0836 
     79 H79        18.9531   57.2886   17.7990 H         1 UNK         0.0836 
     80 H80        19.0986   57.6156   13.5976 H         1 UNK         0.3003 
     81 H81        20.6241   60.0646   12.8811 H         1 UNK         0.0959 
     82 H82        18.3092   58.6519   11.4458 H         1 UNK         0.0808 
     83 H83        18.1659   60.0765   12.4734 H         1 UNK         0.0808 
     84 H84        19.0588   60.1658   10.9637 H         1 UNK         0.0808 
     85 H85        20.0141   56.7028   11.8001 H         1 UNK         0.3181 
     86 H86        21.7185   56.7343    9.5406 H         1 UNK         0.0819 
     87 H87        20.7459   54.3746   11.2467 H         1 UNK         0.0823 
     88 H88        21.4484   54.2445    9.6432 H         1 UNK         0.0823 
     89 H89        19.9123   55.0664    9.8584 H         1 UNK         0.0823 
     90 H90        22.3549   55.6299   12.9067 H         1 UNK         0.3159 
     91 H91        25.2697   55.4548   12.3308 H         1 UNK         0.0870 
     92 H92        24.2743   57.7600   15.3183 H         1 UNK         0.3462 
     93 H93        23.3125   57.5168   13.8867 H         1 UNK         0.3462 
     94 H94        25.2692   53.4435   13.8998 H         1 UNK         0.0763 
     95 H95        23.5203   53.4695   13.8728 H         1 UNK         0.0763 
     96 H96        24.4411   50.3358   11.7804 H         1 UNK         0.0881 
     97 H97        24.3298   50.9556   13.4035 H         1 UNK         0.0881 
@<TRIPOS>BOND
     1    1    2 1    
     2    1   52 1    
     3    1   53 1    
     4    1   54 1    
     5    2    3 2    
     6    2    4 am   BACKBONE|DICT|INTERRES
     7    4    5 1    
     8    4   55 1    
     9    5    6 1    
    10    5   25 1    
    11    5   56 1    
    12    6    7 1    
    13    6   57 1    
    14    6   58 1    
    15    7    8 1    
    16    8    9 1    
    17    8   59 1    
    18    8   60 1    
    19    9   10 ar   
    20    9   14 ar   
    21   10   11 ar   
    22   10   61 1    
    23   11   12 ar   
    24   11   51 1    
    25   12   13 ar   
    26   12   62 1    
    27   13   14 ar   
    28   13   15 1    
    29   14   63 1    
    30   15   16 1    
    31   15   64 1    
    32   15   65 1    
    33   16   17 1    
    34   17   18 1    
    35   17   66 1    
    36   17   67 1    
    37   18   19 1    
    38   18   27 1    
    39   18   68 1    
    40   19   20 am   BACKBONE|DICT|INTERRES
    41   19   69 1    
    42   20   21 2    
    43   20   22 1    
    44   22   23 1    
    45   22   24 1    
    46   22   70 1    
    47   23   71 1    
    48   23   72 1    
    49   23   73 1    
    50   24   25 am   BACKBONE|DICT|INTERRES
    51   24   74 1    
    52   25   26 2    
    53   27   28 2    
    54   27   29 am   BACKBONE|DICT|INTERRES
    55   29   30 1    
    56   29   75 1    
    57   30   31 1    
    58   30   32 1    
    59   30   76 1    
    60   31   77 1    
    61   31   78 1    
    62   31   79 1    
    63   32   33 2    
    64   32   34 am   BACKBONE|DICT|INTERRES
    65   34   35 1    
    66   34   80 1    
    67   35   36 1    
    68   35   37 1    
    69   35   81 1    
    70   36   82 1    
    71   36   83 1    
    72   36   84 1    
    73   37   38 2    
    74   37   39 am   BACKBONE|DICT|INTERRES
    75   39   40 1    
    76   39   85 1    
    77   40   41 1    
    78   40   42 1    
    79   40   86 1    
    80   41   87 1    
    81   41   88 1    
    82   41   89 1    
    83   42   43 2    
    84   42   44 am   BACKBONE|DICT|INTERRES
    85   44   45 1    
    86   44   90 1    
    87   45   46 1    
    88   45   49 1    
    89   45   91 1    
    90   46   47 am   BACKBONE|DICT|INTERRES
    91   46   48 2    
    92   47   92 1    
    93   47   93 1    
    94   49   50 1    
    95   49   94 1    
    96   49   95 1    
    97   50   51 1    
    98   51   96 1    
    99   51   97 1    
@<TRIPOS>SUBSTRUCTURE
     1 UNK         1 GROUP             0       ****    0 ROOT    
