@<TRIPOS>MOLECULE
3R0
97   99    1
SMALL
USER_CHARGES


@<TRIPOS>ATOM
      1 CA         15.4608   47.3609   13.3843 C.3       0 UNK        -0.2006 
      2 C          16.0218   48.6491   12.8002 C.2       0 UNK         0.4864 
      3 O          15.4511   49.7176   13.0188 O.2       0 UNK        -0.5092 
      4 N          17.1286   48.5520   12.0537 N.am      1 UNK        -0.4825 
      5 CA         17.8426   49.6888   11.4613 C.3       1 UNK         0.0812 
      6 C6         18.6760   49.2514   10.2249 C.3       8 UNK        -0.0932 
      7 S7         17.6826   49.3646    8.7054 S.3       8 UNK        -0.2545 
      8 C8         18.3595   50.8838    7.9445 C.3       8 UNK         0.0228 
      9 C9         18.0920   52.1733    8.7251 C.ar      8 UNK        -0.0842 
     10 C10        19.0738   53.1716    8.7666 C.ar      8 UNK        -0.0874 
     11 C11        18.8150   54.4035    9.3780 C.ar      8 UNK        -0.0867 
     12 C12        17.5730   54.6228    9.9802 C.ar      8 UNK        -0.1042 
     13 C13        16.5906   53.6305    9.9690 C.ar      8 UNK        -0.0824 
     14 C14        16.8511   52.4159    9.3274 C.ar      8 UNK        -0.1194 
     15 C15        15.2246   53.8916   10.5896 C.3       8 UNK         0.0180 
     16 S16        15.1696   53.4592   12.3585 S.3       8 UNK        -0.2273 
     17 C17        15.8743   54.9473   13.1530 C.3       8 UNK        -0.0981 
     18 CA         17.1010   54.6293   14.0438 C.3       3 UNK         0.0747 
     19 N          18.1500   53.9375   13.2888 N.am      3 UNK        -0.4794 
     20 C          19.1826   53.2742   13.8207 C.2       2 UNK         0.5067 
     21 O          19.4156   53.2042   15.0278 O.2       2 UNK        -0.4802 
     22 CA         20.0629   52.5383   12.8015 C.3       2 UNK         0.0370 
     23 CB         21.3392   51.9206   13.4092 C.3       2 UNK        -0.1774 
     24 N          19.2770   51.5637   12.0430 N.am      2 UNK        -0.4750 
     25 C          18.7076   50.4368   12.4953 C.2       1 UNK         0.5001 
     26 O          18.8526   49.9913   13.6364 O.2       1 UNK        -0.4889 
     27 C          17.5973   55.9047   14.7614 C.2       3 UNK         0.4972 
     28 O          16.9105   56.3876   15.6625 O.2       3 UNK        -0.4802 
     29 N          18.7618   56.4300   14.3617 N.am      4 UNK        -0.4926 
     30 CA         19.4300   57.5813   14.9609 C.3       4 UNK         0.0426 
     31 CB         19.0922   58.8399   14.1434 C.3       4 UNK        -0.1835 
     32 C          20.9422   57.3305   14.9700 C.2       4 UNK         0.5138 
     33 O          21.4350   56.5325   14.1696 O.2       4 UNK        -0.5194 
     34 N          21.6664   58.0567   15.8333 N.am      5 UNK        -0.4222 
     35 CA         23.1316   58.0004   15.9485 C.3       5 UNK         0.0221 
     36 CB         23.5872   58.8804   17.1239 C.3       5 UNK        -0.2034 
     37 C          23.8722   58.3993   14.6574 C.2       5 UNK         0.4987 
     38 O          24.9617   57.8867   14.3972 O.2       5 UNK        -0.5478 
     39 N          23.2422   59.2628   13.8473 N.am      6 UNK        -0.4365 
     40 CA         23.6951   59.6777   12.5166 C.3       6 UNK         0.0273 
     41 CB         22.7673   60.7895   11.9986 C.3       6 UNK        -0.1956 
     42 C          23.7835   58.5317   11.4885 C.2       6 UNK         0.4962 
     43 O          24.4810   58.6902   10.4851 O.2       6 UNK        -0.5385 
     44 N          23.0976   57.4087   11.7434 N.am      7 UNK        -0.4054 
     45 CA         23.1744   56.1842   10.9332 C.3       7 UNK         0.0701 
     46 C          24.5036   55.3950   11.1084 C.2       7 UNK         0.5602 
     47 N          25.3366   55.6925   12.1001 N.am      7 UNK        -0.7339 
     48 O          24.7869   54.4956   10.3214 O.2       7 UNK        -0.5126 
     49 C49        21.9546   55.2572   11.1733 C.3       8 UNK        -0.0906 
     50 S50        20.3530   56.1081   10.9577 S.3       8 UNK        -0.2590 
     51 C51        19.8307   55.5377    9.3095 C.3       8 UNK         0.0201 
     52 H52        15.4402   47.4210   14.4721 H         1 UNK         0.0901 
     53 H53        16.0563   46.4921   13.1039 H         1 UNK         0.0901 
     54 H54        14.4420   47.2015   13.0321 H         1 UNK         0.0901 
     55 H55        17.5645   47.6494   11.9307 H         1 UNK         0.3005 
     56 H56        17.0904   50.4164   11.1509 H         1 UNK         0.1258 
     57 H57        19.0346   48.2269   10.3358 H         1 UNK         0.0713 
     58 H58        19.5772   49.8497   10.0810 H         1 UNK         0.0713 
     59 H59        17.9209   50.9929    6.9520 H         1 UNK         0.0869 
     60 H60        19.4303   50.7451    7.7871 H         1 UNK         0.0869 
     61 H61        20.0246   53.0089    8.2767 H         1 UNK         0.1451 
     62 H62        17.3656   55.5830   10.4319 H         1 UNK         0.1348 
     63 H63        16.0742   51.6650    9.2793 H         1 UNK         0.1248 
     64 H64        14.9333   54.9337   10.4503 H         1 UNK         0.0802 
     65 H65        14.4684   53.3016   10.0696 H         1 UNK         0.0802 
     66 H66        15.0805   55.3988   13.7513 H         1 UNK         0.0831 
     67 H67        16.1327   55.6891   12.3966 H         1 UNK         0.0831 
     68 H68        16.7723   53.9488   14.8331 H         1 UNK         0.1266 
     69 H69        18.0265   53.9162   12.2862 H         1 UNK         0.2858 
     70 H70        20.3730   53.2775   12.0682 H         1 UNK         0.0493 
     71 H71        21.9595   52.6935   13.8646 H         1 UNK         0.0858 
     72 H72        21.1147   51.1910   14.1872 H         1 UNK         0.0858 
     73 H73        21.9426   51.4267   12.6480 H         1 UNK         0.0858 
     74 H74        19.0743   51.8360   11.0897 H         1 UNK         0.2998 
     75 H75        19.3038   55.9479   13.6544 H         1 UNK         0.2942 
     76 H76        19.1004   57.7131   15.9937 H         1 UNK         0.0588 
     77 H77        19.4306   58.7503   13.1099 H         1 UNK         0.0836 
     78 H78        19.5629   59.7273   14.5678 H         1 UNK         0.0836 
     79 H79        18.0178   59.0232   14.1268 H         1 UNK         0.0836 
     80 H80        21.1866   58.6908   16.4568 H         1 UNK         0.3003 
     81 H81        23.4042   56.9655   16.1675 H         1 UNK         0.0959 
     82 H82        23.3160   59.9265   16.9757 H         1 UNK         0.0808 
     83 H83        23.1464   58.5477   18.0640 H         1 UNK         0.0808 
     84 H84        24.6708   58.8387   17.2446 H         1 UNK         0.0808 
     85 H85        22.3565   59.6347   14.1570 H         1 UNK         0.3181 
     86 H86        24.7006   60.0899   12.6250 H         1 UNK         0.0819 
     87 H87        21.7395   60.4401   11.8901 H         1 UNK         0.0823 
     88 H88        23.0939   61.1465   11.0206 H         1 UNK         0.0823 
     89 H89        22.7630   61.6497   12.6684 H         1 UNK         0.0823 
     90 H90        22.5445   57.3343   12.5897 H         1 UNK         0.3159 
     91 H91        23.1497   56.4867    9.8850 H         1 UNK         0.0870 
     92 H92        26.1941   55.1718   12.1930 H         1 UNK         0.3462 
     93 H93        25.1230   56.4310   12.7587 H         1 UNK         0.3462 
     94 H94        21.9919   54.8689   12.1919 H         1 UNK         0.0763 
     95 H95        21.9921   54.3856   10.5169 H         1 UNK         0.0763 
     96 H96        20.7008   55.2590    8.7133 H         1 UNK         0.0881 
     97 H97        19.3710   56.3780    8.7875 H         1 UNK         0.0881 
@<TRIPOS>BOND
     1    1    2 1    
     2    1   52 1    
     3    1   53 1    
     4    1   54 1    
     5    2    3 2    
     6    2    4 am   BACKBONE|DICT|INTERRES
     7    4    5 1    
     8    4   55 1    
     9    5    6 1    
    10    5   25 1    
    11    5   56 1    
    12    6    7 1    
    13    6   57 1    
    14    6   58 1    
    15    7    8 1    
    16    8    9 1    
    17    8   59 1    
    18    8   60 1    
    19    9   10 ar   
    20    9   14 ar   
    21   10   11 ar   
    22   10   61 1    
    23   11   12 ar   
    24   11   51 1    
    25   12   13 ar   
    26   12   62 1    
    27   13   14 ar   
    28   13   15 1    
    29   14   63 1    
    30   15   16 1    
    31   15   64 1    
    32   15   65 1    
    33   16   17 1    
    34   17   18 1    
    35   17   66 1    
    36   17   67 1    
    37   18   19 1    
    38   18   27 1    
    39   18   68 1    
    40   19   20 am   BACKBONE|DICT|INTERRES
    41   19   69 1    
    42   20   21 2    
    43   20   22 1    
    44   22   23 1    
    45   22   24 1    
    46   22   70 1    
    47   23   71 1    
    48   23   72 1    
    49   23   73 1    
    50   24   25 am   BACKBONE|DICT|INTERRES
    51   24   74 1    
    52   25   26 2    
    53   27   28 2    
    54   27   29 am   BACKBONE|DICT|INTERRES
    55   29   30 1    
    56   29   75 1    
    57   30   31 1    
    58   30   32 1    
    59   30   76 1    
    60   31   77 1    
    61   31   78 1    
    62   31   79 1    
    63   32   33 2    
    64   32   34 am   BACKBONE|DICT|INTERRES
    65   34   35 1    
    66   34   80 1    
    67   35   36 1    
    68   35   37 1    
    69   35   81 1    
    70   36   82 1    
    71   36   83 1    
    72   36   84 1    
    73   37   38 2    
    74   37   39 am   BACKBONE|DICT|INTERRES
    75   39   40 1    
    76   39   85 1    
    77   40   41 1    
    78   40   42 1    
    79   40   86 1    
    80   41   87 1    
    81   41   88 1    
    82   41   89 1    
    83   42   43 2    
    84   42   44 am   BACKBONE|DICT|INTERRES
    85   44   45 1    
    86   44   90 1    
    87   45   46 1    
    88   45   49 1    
    89   45   91 1    
    90   46   47 am   BACKBONE|DICT|INTERRES
    91   46   48 2    
    92   47   92 1    
    93   47   93 1    
    94   49   50 1    
    95   49   94 1    
    96   49   95 1    
    97   50   51 1    
    98   51   96 1    
    99   51   97 1    
@<TRIPOS>SUBSTRUCTURE
     1 UNK         1 GROUP             0       ****    0 ROOT    
