@<TRIPOS>MOLECULE
3R0
97   99    1
SMALL
USER_CHARGES


@<TRIPOS>ATOM
      1 CA         13.6620   52.4925   15.6216 C.3       0 UNK        -0.2006 
      2 C          14.1236   52.4727   14.1721 C.2       0 UNK         0.4864 
      3 O          13.2975   52.3454   13.2675 O.2       0 UNK        -0.5092 
      4 N          15.4378   52.5874   13.9448 N.am      1 UNK        -0.4825 
      5 CA         16.0573   52.6351   12.6163 C.3       1 UNK         0.0812 
      6 C6         17.5949   52.4627   12.6941 C.3       8 UNK        -0.0932 
      7 S7         18.0854   50.8516   13.3939 S.3       8 UNK        -0.2545 
      8 C8         18.7420   49.9849   11.9301 C.3       8 UNK         0.0228 
      9 C9         20.0185   50.6272   11.4015 C.ar      8 UNK        -0.0842 
     10 C10        21.1847   50.6115   12.1727 C.ar      8 UNK        -0.0874 
     11 C11        22.3618   51.1958   11.6959 C.ar      8 UNK        -0.0867 
     12 C12        22.3650   51.8001   10.4349 C.ar      8 UNK        -0.1042 
     13 C13        21.2036   51.8333    9.6571 C.ar      8 UNK        -0.0824 
     14 C14        20.0370   51.2310   10.1402 C.ar      8 UNK        -0.1194 
     15 C15        21.2177   52.5307    8.3003 C.3       8 UNK         0.0180 
     16 S16        19.9320   53.8163    8.1326 S.3       8 UNK        -0.2273 
     17 C17        20.2313   54.8488    9.6093 C.3       8 UNK        -0.0981 
     18 CA         19.1210   55.8981    9.8743 C.3       3 UNK         0.0747 
     19 N          17.7878   55.2883    9.8256 N.am      3 UNK        -0.4794 
     20 C          16.6340   55.9299    9.6048 C.2       2 UNK         0.5067 
     21 O          16.5523   57.1314    9.3533 O.2       2 UNK        -0.4802 
     22 CA         15.3520   55.0810    9.7164 C.3       2 UNK         0.0370 
     23 CB         14.8888   54.6279    8.3231 C.3       2 UNK        -0.1774 
     24 N          15.5142   53.9039   10.5827 N.am      2 UNK        -0.4750 
     25 C          15.7285   53.9618   11.9057 C.2       1 UNK         0.5001 
     26 O          15.7545   55.0161   12.5451 O.2       1 UNK        -0.4889 
     27 C          19.3920   56.6085   11.2220 C.2       3 UNK         0.4972 
     28 O          20.4277   57.2638   11.3528 O.2       3 UNK        -0.4802 
     29 N          18.4885   56.4308   12.2025 N.am      4 UNK        -0.4926 
     30 CA         18.5821   56.8221   13.6137 C.3       4 UNK         0.0426 
     31 CB         18.7697   58.3485   13.7552 C.3       4 UNK        -0.1835 
     32 C          19.6631   56.0336   14.3791 C.2       4 UNK         0.5138 
     33 O          20.4240   55.2644   13.7868 O.2       4 UNK        -0.5194 
     34 N          19.7357   56.2608   15.6985 N.am      5 UNK        -0.4222 
     35 CA         20.7282   55.6600   16.6026 C.3       5 UNK         0.0221 
     36 CB         20.3931   56.0515   18.0514 C.3       5 UNK        -0.2034 
     37 C          22.1890   56.0252   16.2683 C.2       5 UNK         0.4987 
     38 O          23.1019   55.3093   16.6802 O.2       5 UNK        -0.5478 
     39 N          22.3805   57.1165   15.5148 N.am      6 UNK        -0.4365 
     40 CA         23.6568   57.5400   14.9423 C.3       6 UNK         0.0273 
     41 CB         23.5373   59.0102   14.5055 C.3       6 UNK        -0.1956 
     42 C          24.1316   56.6688   13.7614 C.2       6 UNK         0.4962 
     43 O          25.3056   56.7757   13.4021 O.2       6 UNK        -0.5385 
     44 N          23.2430   55.8493   13.1736 N.am      7 UNK        -0.4054 
     45 CA         23.5100   54.9883   12.0068 C.3       7 UNK         0.0701 
     46 C          23.8772   55.7912   10.7237 C.2       7 UNK         0.5602 
     47 N          23.2372   56.9266   10.4742 N.am      7 UNK        -0.7339 
     48 O          24.7293   55.3871    9.9363 O.2       7 UNK        -0.5126 
     49 C49        24.5086   53.8359   12.3250 C.3       8 UNK        -0.0906 
     50 S50        23.8426   52.6552   13.5473 S.3       8 UNK        -0.2590 
     51 C51        23.6301   51.1515   12.5382 C.3       8 UNK         0.0201 
     52 H52        12.9794   53.3258   15.7860 H         1 UNK         0.0901 
     53 H53        14.4971   52.5964   16.3141 H         1 UNK         0.0901 
     54 H54        13.1364   51.5684   15.8607 H         1 UNK         0.0901 
     55 H55        16.0722   52.6914   14.7235 H         1 UNK         0.3005 
     56 H56        15.6424   51.8152   12.0251 H         1 UNK         0.1258 
     57 H57        18.0408   53.2455   13.3115 H         1 UNK         0.0713 
     58 H58        18.0451   52.5749   11.7068 H         1 UNK         0.0713 
     59 H59        17.9717   49.9491   11.1582 H         1 UNK         0.0869 
     60 H60        18.9516   48.9487   12.1989 H         1 UNK         0.0869 
     61 H61        21.1717   50.1457   13.1489 H         1 UNK         0.1451 
     62 H62        23.2724   52.2500   10.0578 H         1 UNK         0.1348 
     63 H63        19.1394   51.2500    9.5373 H         1 UNK         0.1248 
     64 H64        22.1890   52.9910    8.1121 H         1 UNK         0.0802 
     65 H65        21.0746   51.7849    7.5175 H         1 UNK         0.0802 
     66 H66        21.1943   55.3415    9.4761 H         1 UNK         0.0831 
     67 H67        20.3355   54.1968   10.4785 H         1 UNK         0.0831 
     68 H68        19.1772   56.6622    9.0954 H         1 UNK         0.1266 
     69 H69        17.7552   54.2928    9.9830 H         1 UNK         0.2858 
     70 H70        14.5732   55.7138   10.1473 H         1 UNK         0.0493 
     71 H71        15.6241   53.9819    7.8416 H         1 UNK         0.0858 
     72 H72        13.9447   54.0854    8.3739 H         1 UNK         0.0858 
     73 H73        14.7315   55.4854    7.6671 H         1 UNK         0.0858 
     74 H74        15.5044   53.0037   10.1235 H         1 UNK         0.2998 
     75 H75        17.6714   55.8754   11.9808 H         1 UNK         0.2942 
     76 H76        17.6226   56.5559   14.0595 H         1 UNK         0.0588 
     77 H77        18.6292   58.6735   14.7863 H         1 UNK         0.0836 
     78 H78        18.0436   58.8923   13.1509 H         1 UNK         0.0836 
     79 H79        19.7650   58.6713   13.4484 H         1 UNK         0.0836 
     80 H80        19.0693   56.8926   16.1194 H         1 UNK         0.3003 
     81 H81        20.6432   54.5749   16.5098 H         1 UNK         0.0959 
     82 H82        20.4400   57.1311   18.1996 H         1 UNK         0.0808 
     83 H83        19.3956   55.7147   18.3344 H         1 UNK         0.0808 
     84 H84        21.0959   55.5964   18.7510 H         1 UNK         0.0808 
     85 H85        21.5679   57.6531   15.2506 H         1 UNK         0.3181 
     86 H86        24.4191   57.4737   15.7216 H         1 UNK         0.0819 
     87 H87        22.7866   59.1403   13.7247 H         1 UNK         0.0823 
     88 H88        23.2694   59.6545   15.3430 H         1 UNK         0.0823 
     89 H89        24.4848   59.3776   14.1085 H         1 UNK         0.0823 
     90 H90        22.2912   55.8039   13.5252 H         1 UNK         0.3159 
     91 H91        22.5553   54.5226   11.7616 H         1 UNK         0.0870 
     92 H92        23.4749   57.4519    9.6485 H         1 UNK         0.3462 
     93 H93        22.4604   57.2220   11.0534 H         1 UNK         0.3462 
     94 H94        25.4501   54.2329   12.7061 H         1 UNK         0.0763 
     95 H95        24.7765   53.2889   11.4212 H         1 UNK         0.0763 
     96 H96        24.5040   50.9967   11.9036 H         1 UNK         0.0881 
     97 H97        23.5969   50.2904   13.2075 H         1 UNK         0.0881 
@<TRIPOS>BOND
     1    1    2 1    
     2    1   52 1    
     3    1   53 1    
     4    1   54 1    
     5    2    3 2    
     6    2    4 am   BACKBONE|DICT|INTERRES
     7    4    5 1    
     8    4   55 1    
     9    5    6 1    
    10    5   25 1    
    11    5   56 1    
    12    6    7 1    
    13    6   57 1    
    14    6   58 1    
    15    7    8 1    
    16    8    9 1    
    17    8   59 1    
    18    8   60 1    
    19    9   10 ar   
    20    9   14 ar   
    21   10   11 ar   
    22   10   61 1    
    23   11   12 ar   
    24   11   51 1    
    25   12   13 ar   
    26   12   62 1    
    27   13   14 ar   
    28   13   15 1    
    29   14   63 1    
    30   15   16 1    
    31   15   64 1    
    32   15   65 1    
    33   16   17 1    
    34   17   18 1    
    35   17   66 1    
    36   17   67 1    
    37   18   19 1    
    38   18   27 1    
    39   18   68 1    
    40   19   20 am   BACKBONE|DICT|INTERRES
    41   19   69 1    
    42   20   21 2    
    43   20   22 1    
    44   22   23 1    
    45   22   24 1    
    46   22   70 1    
    47   23   71 1    
    48   23   72 1    
    49   23   73 1    
    50   24   25 am   BACKBONE|DICT|INTERRES
    51   24   74 1    
    52   25   26 2    
    53   27   28 2    
    54   27   29 am   BACKBONE|DICT|INTERRES
    55   29   30 1    
    56   29   75 1    
    57   30   31 1    
    58   30   32 1    
    59   30   76 1    
    60   31   77 1    
    61   31   78 1    
    62   31   79 1    
    63   32   33 2    
    64   32   34 am   BACKBONE|DICT|INTERRES
    65   34   35 1    
    66   34   80 1    
    67   35   36 1    
    68   35   37 1    
    69   35   81 1    
    70   36   82 1    
    71   36   83 1    
    72   36   84 1    
    73   37   38 2    
    74   37   39 am   BACKBONE|DICT|INTERRES
    75   39   40 1    
    76   39   85 1    
    77   40   41 1    
    78   40   42 1    
    79   40   86 1    
    80   41   87 1    
    81   41   88 1    
    82   41   89 1    
    83   42   43 2    
    84   42   44 am   BACKBONE|DICT|INTERRES
    85   44   45 1    
    86   44   90 1    
    87   45   46 1    
    88   45   49 1    
    89   45   91 1    
    90   46   47 am   BACKBONE|DICT|INTERRES
    91   46   48 2    
    92   47   92 1    
    93   47   93 1    
    94   49   50 1    
    95   49   94 1    
    96   49   95 1    
    97   50   51 1    
    98   51   96 1    
    99   51   97 1    
@<TRIPOS>SUBSTRUCTURE
     1 UNK         1 GROUP             0       ****    0 ROOT    
