@<TRIPOS>MOLECULE
3R0
97   99    1
SMALL
USER_CHARGES


@<TRIPOS>ATOM
      1 CA         20.7168   53.3554   16.5324 C.3       0 UNK        -0.2006 
      2 C          19.7231   52.9293   15.4623 C.2       0 UNK         0.4864 
      3 O          19.2426   53.7745   14.7045 O.2       0 UNK        -0.5092 
      4 N          19.3950   51.6286   15.4234 N.am      1 UNK        -0.4825 
      5 CA         18.4623   50.9575   14.4962 C.3       1 UNK         0.0812 
      6 C6         18.8394   51.1305   12.9980 C.3       8 UNK        -0.0932 
      7 S7         20.5283   50.6100   12.5591 S.3       8 UNK        -0.2545 
      8 C8         20.3453   50.3032   10.7694 C.3       8 UNK         0.0228 
      9 C9         20.0542   51.5717    9.9716 C.ar      8 UNK        -0.0842 
     10 C10        21.0899   52.2657    9.3366 C.ar      8 UNK        -0.0874 
     11 C11        20.8190   53.3954    8.5543 C.ar      8 UNK        -0.0867 
     12 C12        19.4981   53.8421    8.4323 C.ar      8 UNK        -0.1042 
     13 C13        18.4569   53.1708    9.0778 C.ar      8 UNK        -0.0824 
     14 C14        18.7396   52.0264    9.8273 C.ar      8 UNK        -0.1194 
     15 C15        17.0237   53.6715    8.9555 C.3       8 UNK         0.0180 
     16 S16        16.7062   55.1130   10.0250 S.3       8 UNK        -0.2273 
     17 C17        17.0794   54.4283   11.6746 C.3       8 UNK        -0.0981 
     18 CA         16.4884   55.2524   12.8519 C.3       3 UNK         0.0747 
     19 N          16.3895   54.4147   14.0425 N.am      3 UNK        -0.4794 
     20 C          15.2691   53.9632   14.6174 C.2       2 UNK         0.5067 
     21 O          14.1353   54.2427   14.2260 O.2       2 UNK        -0.4802 
     22 CA         15.4684   53.0191   15.8265 C.3       2 UNK         0.0370 
     23 CB         14.2347   52.1391   16.1188 C.3       2 UNK        -0.1774 
     24 N          16.6920   52.2125   15.6943 N.am      2 UNK        -0.4750 
     25 C          16.9784   51.3493   14.7050 C.2       1 UNK         0.5001 
     26 O          16.1288   50.9000   13.9343 O.2       1 UNK        -0.4889 
     27 C          17.3189   56.5014   13.2166 C.2       3 UNK         0.4972 
     28 O          17.3878   56.8815   14.3893 O.2       3 UNK        -0.4802 
     29 N          17.9562   57.1224   12.2172 N.am      4 UNK        -0.4926 
     30 CA         18.8468   58.2771   12.3486 C.3       4 UNK         0.0426 
     31 CB         18.9499   58.9742   10.9792 C.3       4 UNK        -0.1835 
     32 C          20.2263   57.8775   12.9107 C.2       4 UNK         0.5138 
     33 O          21.2366   58.0372   12.2238 O.2       4 UNK        -0.5194 
     34 N          20.2347   57.3279   14.1351 N.am      5 UNK        -0.4222 
     35 CA         21.3991   56.8809   14.9148 C.3       5 UNK         0.0221 
     36 CB         22.1624   58.1030   15.4670 C.3       5 UNK        -0.2034 
     37 C          22.3152   55.9141   14.1371 C.2       5 UNK         0.4987 
     38 O          23.5363   56.0841   14.1369 O.2       5 UNK        -0.5478 
     39 N          21.6957   54.9554   13.4309 N.am      6 UNK        -0.4365 
     40 CA         22.3127   53.9867   12.5123 C.3       6 UNK         0.0273 
     41 CB         23.1337   52.9458   13.3031 C.3       6 UNK        -0.1956 
     42 C          23.1357   54.6271   11.3711 C.2       6 UNK         0.4962 
     43 O          24.0309   53.9733   10.8315 O.2       6 UNK        -0.5385 
     44 N          22.8346   55.8906   11.0395 N.am      7 UNK        -0.4054 
     45 CA         23.5801   56.7579   10.1154 C.3       7 UNK         0.0701 
     46 C          24.9802   57.1903   10.6441 C.2       7 UNK         0.5602 
     47 N          25.2761   57.0642   11.9330 N.am      7 UNK        -0.7339 
     48 O          25.8087   57.6816    9.8813 O.2       7 UNK        -0.5126 
     49 C49        23.6142   56.2337    8.6511 C.3       8 UNK        -0.0906 
     50 S50        21.9465   55.9016    7.9826 S.3       8 UNK        -0.2590 
     51 C51        21.9464   54.0841    7.7906 C.3       8 UNK         0.0201 
     52 H52        20.9194   52.5530   17.2413 H         1 UNK         0.0901 
     53 H53        20.3251   54.2050   17.0908 H         1 UNK         0.0901 
     54 H54        21.6616   53.6496   16.0786 H         1 UNK         0.0901 
     55 H55        19.8323   51.0062   16.0896 H         1 UNK         0.3005 
     56 H56        18.5172   49.8927   14.7290 H         1 UNK         0.1258 
     57 H57        18.1543   50.5478   12.3805 H         1 UNK         0.0713 
     58 H58        18.7213   52.1695   12.6910 H         1 UNK         0.0713 
     59 H59        21.2616   49.8378   10.4032 H         1 UNK         0.0869 
     60 H60        19.5544   49.5698   10.6051 H         1 UNK         0.0869 
     61 H61        22.1071   51.9099    9.4329 H         1 UNK         0.1451 
     62 H62        19.2776   54.7135    7.8308 H         1 UNK         0.1348 
     63 H63        17.9301   51.4904   10.3016 H         1 UNK         0.1248 
     64 H64        16.8218   53.9486    7.9199 H         1 UNK         0.0802 
     65 H65        16.3151   52.8790    9.2012 H         1 UNK         0.0802 
     66 H66        16.6645   53.4187   11.6975 H         1 UNK         0.0831 
     67 H67        18.1594   54.3057   11.7805 H         1 UNK         0.0831 
     68 H68        15.4941   55.6102   12.5750 H         1 UNK         0.1266 
     69 H69        17.2830   54.1700   14.4582 H         1 UNK         0.2858 
     70 H70        15.6235   53.6649   16.6919 H         1 UNK         0.0493 
     71 H71        13.9538   51.5295   15.2599 H         1 UNK         0.0858 
     72 H72        13.3704   52.7543   16.3717 H         1 UNK         0.0858 
     73 H73        14.4131   51.4714   16.9613 H         1 UNK         0.0858 
     74 H74        17.4672   52.5013   16.2746 H         1 UNK         0.2998 
     75 H75        17.8606   56.7313   11.2881 H         1 UNK         0.2942 
     76 H76        18.4031   58.9863   13.0506 H         1 UNK         0.0588 
     77 H77        19.5840   59.8599   11.0383 H         1 UNK         0.0836 
     78 H78        17.9723   59.3013   10.6250 H         1 UNK         0.0836 
     79 H79        19.3788   58.3165   10.2217 H         1 UNK         0.0836 
     80 H80        19.3264   57.1866   14.5688 H         1 UNK         0.3003 
     81 H81        21.0089   56.3190   15.7644 H         1 UNK         0.0959 
     82 H82        21.5059   58.7539   16.0442 H         1 UNK         0.0808 
     83 H83        22.9729   57.7934   16.1281 H         1 UNK         0.0808 
     84 H84        22.6042   58.6968   14.6657 H         1 UNK         0.0808 
     85 H85        20.6906   54.8683   13.5401 H         1 UNK         0.3181 
     86 H86        21.4866   53.4636   12.0287 H         1 UNK         0.0819 
     87 H87        24.0078   53.3942   13.7759 H         1 UNK         0.0823 
     88 H88        22.5344   52.4728   14.0799 H         1 UNK         0.0823 
     89 H89        23.4889   52.1486   12.6490 H         1 UNK         0.0823 
     90 H90        22.1165   56.3764   11.5665 H         1 UNK         0.3159 
     91 H91        23.0154   57.6901   10.0988 H         1 UNK         0.0870 
     92 H92        24.6067   56.6799   12.5938 H         1 UNK         0.3462 
     93 H93        26.1824   57.3598   12.2580 H         1 UNK         0.3462 
     94 H94        24.0701   56.9807    7.9989 H         1 UNK         0.0763 
     95 H95        24.2509   55.3524    8.5711 H         1 UNK         0.0763 
     96 H96        22.9090   53.6691    8.0904 H         1 UNK         0.0881 
     97 H97        21.8378   53.8500    6.7309 H         1 UNK         0.0881 
@<TRIPOS>BOND
     1    1    2 1    
     2    1   52 1    
     3    1   53 1    
     4    1   54 1    
     5    2    3 2    
     6    2    4 am   BACKBONE|DICT|INTERRES
     7    4    5 1    
     8    4   55 1    
     9    5    6 1    
    10    5   25 1    
    11    5   56 1    
    12    6    7 1    
    13    6   57 1    
    14    6   58 1    
    15    7    8 1    
    16    8    9 1    
    17    8   59 1    
    18    8   60 1    
    19    9   10 ar   
    20    9   14 ar   
    21   10   11 ar   
    22   10   61 1    
    23   11   12 ar   
    24   11   51 1    
    25   12   13 ar   
    26   12   62 1    
    27   13   14 ar   
    28   13   15 1    
    29   14   63 1    
    30   15   16 1    
    31   15   64 1    
    32   15   65 1    
    33   16   17 1    
    34   17   18 1    
    35   17   66 1    
    36   17   67 1    
    37   18   19 1    
    38   18   27 1    
    39   18   68 1    
    40   19   20 am   BACKBONE|DICT|INTERRES
    41   19   69 1    
    42   20   21 2    
    43   20   22 1    
    44   22   23 1    
    45   22   24 1    
    46   22   70 1    
    47   23   71 1    
    48   23   72 1    
    49   23   73 1    
    50   24   25 am   BACKBONE|DICT|INTERRES
    51   24   74 1    
    52   25   26 2    
    53   27   28 2    
    54   27   29 am   BACKBONE|DICT|INTERRES
    55   29   30 1    
    56   29   75 1    
    57   30   31 1    
    58   30   32 1    
    59   30   76 1    
    60   31   77 1    
    61   31   78 1    
    62   31   79 1    
    63   32   33 2    
    64   32   34 am   BACKBONE|DICT|INTERRES
    65   34   35 1    
    66   34   80 1    
    67   35   36 1    
    68   35   37 1    
    69   35   81 1    
    70   36   82 1    
    71   36   83 1    
    72   36   84 1    
    73   37   38 2    
    74   37   39 am   BACKBONE|DICT|INTERRES
    75   39   40 1    
    76   39   85 1    
    77   40   41 1    
    78   40   42 1    
    79   40   86 1    
    80   41   87 1    
    81   41   88 1    
    82   41   89 1    
    83   42   43 2    
    84   42   44 am   BACKBONE|DICT|INTERRES
    85   44   45 1    
    86   44   90 1    
    87   45   46 1    
    88   45   49 1    
    89   45   91 1    
    90   46   47 am   BACKBONE|DICT|INTERRES
    91   46   48 2    
    92   47   92 1    
    93   47   93 1    
    94   49   50 1    
    95   49   94 1    
    96   49   95 1    
    97   50   51 1    
    98   51   96 1    
    99   51   97 1    
@<TRIPOS>SUBSTRUCTURE
     1 UNK         1 GROUP             0       ****    0 ROOT    
