@<TRIPOS>MOLECULE
3R0
97   99    1
SMALL
USER_CHARGES


@<TRIPOS>ATOM
      1 CA         13.9735   50.6686   10.3958 C.3       0 UNK        -0.2006 
      2 C          14.6916   51.8491    9.7593 C.2       0 UNK         0.4864 
      3 O          14.0667   52.6385    9.0510 O.2       0 UNK        -0.5092 
      4 N          16.0010   51.9768   10.0084 N.am      1 UNK        -0.4825 
      5 CA         16.8504   53.0484    9.4705 C.3       1 UNK         0.0812 
      6 C6         18.3505   52.6626    9.5093 C.3       8 UNK        -0.0932 
      7 S7         18.7779   51.2199    8.4771 S.3       8 UNK        -0.2545 
      8 C8         18.8898   49.8495    9.6783 C.3       8 UNK         0.0228 
      9 C9         19.7753   50.1564   10.8815 C.ar      8 UNK        -0.0842 
     10 C10        21.1274   50.4749   10.7183 C.ar      8 UNK        -0.0874 
     11 C11        21.9341   50.7482   11.8291 C.ar      8 UNK        -0.0867 
     12 C12        21.3786   50.7039   13.1123 C.ar      8 UNK        -0.1042 
     13 C13        20.0319   50.3691   13.2873 C.ar      8 UNK        -0.0824 
     14 C14        19.2378   50.0996   12.1697 C.ar      8 UNK        -0.1194 
     15 C15        19.4331   50.2445   14.6800 C.3       8 UNK         0.0180 
     16 S16        18.1930   51.5351   15.0061 S.3       8 UNK        -0.2273 
     17 C17        19.2418   52.9705   15.4115 C.3       8 UNK        -0.0981 
     18 CA         19.2879   54.0440   14.2949 C.3       3 UNK         0.0747 
     19 N          17.9445   54.4275   13.8371 N.am      3 UNK        -0.4794 
     20 C          17.6093   55.4309   13.0140 C.2       2 UNK         0.5067 
     21 O          18.3835   56.3062   12.6233 O.2       2 UNK        -0.4802 
     22 CA         16.1685   55.3715   12.4829 C.3       2 UNK         0.0370 
     23 CB         15.6300   56.7440   12.0245 C.3       2 UNK        -0.1774 
     24 N          16.1007   54.3476   11.4311 N.am      2 UNK        -0.4750 
     25 C          16.6656   54.3904   10.2116 C.2       1 UNK         0.5001 
     26 O          17.0846   55.4172    9.6785 O.2       1 UNK        -0.4889 
     27 C          20.1582   55.2234   14.7620 C.2       3 UNK         0.4972 
     28 O          21.3021   55.3360   14.3281 O.2       3 UNK        -0.4802 
     29 N          19.5905   56.0909   15.6120 N.am      4 UNK        -0.4926 
     30 CA         20.2705   57.2541   16.1903 C.3       4 UNK         0.0426 
     31 CB         19.3916   57.8549   17.2985 C.3       4 UNK        -0.1835 
     32 C          20.6509   58.3348   15.1621 C.2       4 UNK         0.5138 
     33 O          21.6400   59.0378   15.3711 O.2       4 UNK        -0.5194 
     34 N          19.8716   58.4465   14.0789 N.am      5 UNK        -0.4222 
     35 CA         20.1302   59.3686   12.9745 C.3       5 UNK         0.0221 
     36 CB         18.7981   59.7927   12.3321 C.3       5 UNK        -0.2034 
     37 C          21.0620   58.7355   11.9324 C.2       5 UNK         0.4987 
     38 O          21.9998   59.3934   11.4809 O.2       5 UNK        -0.5478 
     39 N          20.7820   57.4787   11.5627 N.am      6 UNK        -0.4365 
     40 CA         21.5000   56.7429   10.5214 C.3       6 UNK         0.0273 
     41 CB         20.6604   55.5317   10.0876 C.3       6 UNK        -0.1956 
     42 C          22.9065   56.2890   10.9383 C.2       6 UNK         0.4962 
     43 O          23.8344   56.3965   10.1342 O.2       6 UNK        -0.5385 
     44 N          23.0282   55.7651   12.1619 N.am      7 UNK        -0.4054 
     45 CA         24.2232   55.0876   12.6856 C.3       7 UNK         0.0701 
     46 C          24.7423   55.7083   14.0123 C.2       7 UNK         0.5602 
     47 N          24.2230   56.8405   14.4704 N.am      7 UNK        -0.7339 
     48 O          25.6589   55.1701   14.6284 O.2       7 UNK        -0.5126 
     49 C49        23.9847   53.5540   12.8013 C.3       8 UNK        -0.0906 
     50 S50        23.7165   52.7730   11.1734 S.3       8 UNK        -0.2590 
     51 C51        23.4157   51.0401   11.6363 C.3       8 UNK         0.0201 
     52 H52        13.5371   50.0354    9.6238 H         1 UNK         0.0901 
     53 H53        13.1697   51.0218   11.0412 H         1 UNK         0.0901 
     54 H54        14.6462   50.0560   10.9959 H         1 UNK         0.0901 
     55 H55        16.4690   51.2959   10.5882 H         1 UNK         0.3005 
     56 H56        16.5691   53.2230    8.4291 H         1 UNK         0.1258 
     57 H57        18.6833   52.5148   10.5373 H         1 UNK         0.0713 
     58 H58        18.9556   53.4842    9.1234 H         1 UNK         0.0713 
     59 H59        17.8812   49.5827    9.9964 H         1 UNK         0.0869 
     60 H60        19.2845   48.9702    9.1676 H         1 UNK         0.0869 
     61 H61        21.5520   50.5088    9.7240 H         1 UNK         0.1451 
     62 H62        22.0009   50.9033   13.9741 H         1 UNK         0.1348 
     63 H63        18.1982   49.8368   12.3108 H         1 UNK         0.1248 
     64 H64        18.9495   49.2704   14.7672 H         1 UNK         0.0802 
     65 H65        20.2062   50.2650   15.4495 H         1 UNK         0.0802 
     66 H66        20.2505   52.6259   15.6481 H         1 UNK         0.0831 
     67 H67        18.8489   53.3972   16.3365 H         1 UNK         0.0831 
     68 H68        19.7912   53.6054   13.4297 H         1 UNK         0.1266 
     69 H69        17.2231   53.7654   14.0844 H         1 UNK         0.2858 
     70 H70        15.5275   55.0274   13.2962 H         1 UNK         0.0493 
     71 H71        16.2668   57.2177   11.2774 H         1 UNK         0.0858 
     72 H72        14.6285   56.6567   11.6040 H         1 UNK         0.0858 
     73 H73        15.5700   57.4321   12.8682 H         1 UNK         0.0858 
     74 H74        15.7726   53.4415   11.7347 H         1 UNK         0.2998 
     75 H75        18.6336   55.9308   15.8935 H         1 UNK         0.2942 
     76 H76        21.1980   56.9015   16.6468 H         1 UNK         0.0588 
     77 H77        19.8841   58.7082   17.7671 H         1 UNK         0.0836 
     78 H78        19.1913   57.1278   18.0856 H         1 UNK         0.0836 
     79 H79        18.4341   58.2048   16.9106 H         1 UNK         0.0836 
     80 H80        19.1185   57.7810   13.9536 H         1 UNK         0.3003 
     81 H81        20.6175   60.2679   13.3586 H         1 UNK         0.0959 
     82 H82        18.1506   60.2880   13.0558 H         1 UNK         0.0808 
     83 H83        18.9674   60.4954   11.5151 H         1 UNK         0.0808 
     84 H84        18.2516   58.9428   11.9217 H         1 UNK         0.0808 
     85 H85        19.9639   57.0254   11.9648 H         1 UNK         0.3181 
     86 H86        21.6100   57.4020    9.6574 H         1 UNK         0.0819 
     87 H87        20.4528   54.8599   10.9217 H         1 UNK         0.0823 
     88 H88        19.7071   55.8496    9.6670 H         1 UNK         0.0823 
     89 H89        21.1754   54.9506    9.3211 H         1 UNK         0.0823 
     90 H90        22.2263   55.7364   12.7866 H         1 UNK         0.3159 
     91 H91        25.0524   55.2372   11.9926 H         1 UNK         0.0870 
     92 H92        23.4774   57.3034   13.9768 H         1 UNK         0.3462 
     93 H93        24.5778   57.2331   15.3276 H         1 UNK         0.3462 
     94 H94        23.1264   53.3469   13.4431 H         1 UNK         0.0763 
     95 H95        24.8428   53.0617   13.2627 H         1 UNK         0.0763 
     96 H96        23.8082   50.3975   10.8467 H         1 UNK         0.0881 
     97 H97        23.9820   50.7872   12.5339 H         1 UNK         0.0881 
@<TRIPOS>BOND
     1    1    2 1    
     2    1   52 1    
     3    1   53 1    
     4    1   54 1    
     5    2    3 2    
     6    2    4 am   BACKBONE|DICT|INTERRES
     7    4    5 1    
     8    4   55 1    
     9    5    6 1    
    10    5   25 1    
    11    5   56 1    
    12    6    7 1    
    13    6   57 1    
    14    6   58 1    
    15    7    8 1    
    16    8    9 1    
    17    8   59 1    
    18    8   60 1    
    19    9   10 ar   
    20    9   14 ar   
    21   10   11 ar   
    22   10   61 1    
    23   11   12 ar   
    24   11   51 1    
    25   12   13 ar   
    26   12   62 1    
    27   13   14 ar   
    28   13   15 1    
    29   14   63 1    
    30   15   16 1    
    31   15   64 1    
    32   15   65 1    
    33   16   17 1    
    34   17   18 1    
    35   17   66 1    
    36   17   67 1    
    37   18   19 1    
    38   18   27 1    
    39   18   68 1    
    40   19   20 am   BACKBONE|DICT|INTERRES
    41   19   69 1    
    42   20   21 2    
    43   20   22 1    
    44   22   23 1    
    45   22   24 1    
    46   22   70 1    
    47   23   71 1    
    48   23   72 1    
    49   23   73 1    
    50   24   25 am   BACKBONE|DICT|INTERRES
    51   24   74 1    
    52   25   26 2    
    53   27   28 2    
    54   27   29 am   BACKBONE|DICT|INTERRES
    55   29   30 1    
    56   29   75 1    
    57   30   31 1    
    58   30   32 1    
    59   30   76 1    
    60   31   77 1    
    61   31   78 1    
    62   31   79 1    
    63   32   33 2    
    64   32   34 am   BACKBONE|DICT|INTERRES
    65   34   35 1    
    66   34   80 1    
    67   35   36 1    
    68   35   37 1    
    69   35   81 1    
    70   36   82 1    
    71   36   83 1    
    72   36   84 1    
    73   37   38 2    
    74   37   39 am   BACKBONE|DICT|INTERRES
    75   39   40 1    
    76   39   85 1    
    77   40   41 1    
    78   40   42 1    
    79   40   86 1    
    80   41   87 1    
    81   41   88 1    
    82   41   89 1    
    83   42   43 2    
    84   42   44 am   BACKBONE|DICT|INTERRES
    85   44   45 1    
    86   44   90 1    
    87   45   46 1    
    88   45   49 1    
    89   45   91 1    
    90   46   47 am   BACKBONE|DICT|INTERRES
    91   46   48 2    
    92   47   92 1    
    93   47   93 1    
    94   49   50 1    
    95   49   94 1    
    96   49   95 1    
    97   50   51 1    
    98   51   96 1    
    99   51   97 1    
@<TRIPOS>SUBSTRUCTURE
     1 UNK         1 GROUP             0       ****    0 ROOT    
