@<TRIPOS>MOLECULE
3R136
137   139    1
SMALL
USER_CHARGES


@<TRIPOS>ATOM
      1 CA         27.4078   29.1755    4.3866 C.3       0 UNK        -0.1979 
      2 C          26.8611   27.7644    4.5309 C.2       0 UNK         0.4864 
      3 O          26.4806   27.3738    5.6357 O.2       0 UNK        -0.5359 
      4 N          26.8241   26.9964    3.4366 N.am      1 UNK        -0.4318 
      5 CA         26.3757   25.6042    3.4134 C.3       1 UNK         0.0824 
      6 C6         27.5329   24.6159    3.7283 C.3       12 UNK        -0.0944 
      7 S7         28.9033   24.6388    2.5174 S.3       12 UNK        -0.2672 
      8 C8         30.1096   25.6884    3.3800 C.3       12 UNK         0.0333 
      9 C9         31.3531   25.9136    2.5341 C.ar      12 UNK        -0.0807 
     10 C10        32.3668   24.9506    2.5092 C.ar      12 UNK        -0.0894 
     11 C11        33.5145   25.1535    1.7378 C.ar      12 UNK        -0.0804 
     12 C12        33.6453   26.3281    0.9931 C.ar      12 UNK        -0.0824 
     13 C13        32.6517   27.3094    1.0261 C.ar      12 UNK        -0.0762 
     14 C14        31.4992   27.0907    1.7914 C.ar      12 UNK        -0.0782 
     15 C15        32.8771   28.6267    0.2932 C.3       12 UNK         0.0230 
     16 S16        31.9690   28.7265   -1.2833 S.3       12 UNK        -0.2608 
     17 C17        30.3401   29.3062   -0.6982 C.3       12 UNK        -0.0989 
     18 CA         29.1452   28.3549   -0.9954 C.3       5 UNK         0.0716 
     19 N          29.5020   26.9352   -0.9673 N.am      5 UNK        -0.4135 
     20 C          28.7537   25.9513   -1.4803 C.2       4 UNK         0.5031 
     21 O          27.6438   26.1289   -1.9858 O.2       4 UNK        -0.5229 
     22 CA         29.3502   24.5370   -1.4950 C.3       4 UNK         0.0329 
     23 CB         30.7932   24.4279   -0.9558 C.3       4 UNK        -0.2001 
     24 N          28.4640   23.6422   -0.7588 N.am      4 UNK        -0.4303 
     25 C          28.3099   22.3367   -1.0052 C.2       3 UNK         0.5044 
     26 O          28.8885   21.7377   -1.9132 O.2       3 UNK        -0.5152 
     27 CA         27.3697   21.5479   -0.0765 C.3       3 UNK         0.0319 
     28 CB         28.1832   20.8206    1.0071 C.3       3 UNK        -0.2001 
     29 N          26.3470   22.3708    0.5732 N.am      3 UNK        -0.4354 
     30 C          25.2604   22.8714   -0.0339 C.2       2 UNK         0.4964 
     31 O          25.0074   22.7053   -1.2273 O.2       2 UNK        -0.5047 
     32 CA         24.2750   23.6725    0.8391 C.3       2 UNK         0.0288 
     33 CB         23.0732   22.7970    1.2323 C.3       2 UNK        -0.2113 
     34 N          24.8965   24.2073    2.0553 N.am      2 UNK        -0.4145 
     35 C          25.6804   25.2937    2.0761 C.2       1 UNK         0.5006 
     36 O          25.8793   26.0046    1.0894 O.2       1 UNK        -0.5103 
     37 C          28.0129   28.6622   -0.0007 C.2       5 UNK         0.5055 
     38 O          28.0541   28.1750    1.1303 O.2       5 UNK        -0.5220 
     39 N          27.0999   29.5584   -0.3960 N.am      6 UNK        -0.4450 
     40 CA         26.1412   30.1991    0.5108 C.3       6 UNK         0.0367 
     41 CB         24.9504   30.7269   -0.3058 C.3       6 UNK        -0.1929 
     42 C          26.7785   31.3375    1.3360 C.2       6 UNK         0.5070 
     43 O          26.1909   31.7594    2.3321 O.2       6 UNK        -0.5237 
     44 N          27.9520   31.8244    0.9049 N.am      7 UNK        -0.4739 
     45 CA         28.7527   32.8464    1.5811 C.3       7 UNK         0.0276 
     46 CB         29.8706   33.3095    0.6319 C.3       7 UNK        -0.1927 
     47 C          29.3578   32.3318    2.8981 C.2       7 UNK         0.5013 
     48 O          29.7063   31.1538    2.9944 O.2       7 UNK        -0.5193 
     49 N          29.5142   33.2429    3.8680 N.am      8 UNK        -0.4253 
     50 CA         30.0075   32.9643    5.2220 C.3       8 UNK         0.0242 
     51 CB         29.7650   34.1986    6.1065 C.3       8 UNK        -0.2000 
     52 C          31.4828   32.5286    5.3056 C.2       8 UNK         0.4948 
     53 O          31.8750   31.9525    6.3221 O.2       8 UNK        -0.5275 
     54 N          32.2772   32.7832    4.2556 N.am      9 UNK        -0.4246 
     55 CA         33.6827   32.3780    4.1230 C.3       9 UNK         0.0261 
     56 CB         34.3528   33.2587    3.0513 C.3       9 UNK        -0.1959 
     57 C          33.8293   30.8688    3.8271 C.2       9 UNK         0.5033 
     58 O          34.4263   30.4872    2.8184 O.2       9 UNK        -0.5390 
     59 N          33.2441   30.0428    4.6987 N.am      10 UNK        -0.4215 
     60 CA         33.1713   28.5902    4.5858 C.3       10 UNK         0.0240 
     61 CB         31.9404   28.1079    5.3733 C.3       10 UNK        -0.1982 
     62 C          34.4434   27.8881    5.0799 C.2       10 UNK         0.4970 
     63 O          35.2318   28.4783    5.8227 O.2       10 UNK        -0.4916 
     64 N          34.5816   26.6130    4.6939 N.am      11 UNK        -0.4279 
     65 CA         35.6335   25.6947    5.1619 C.3       11 UNK         0.1003 
     66 C          35.5718   25.3471    6.6799 C.2       11 UNK         0.5709 
     67 N          34.4581   25.5614    7.3713 N.am      11 UNK        -0.7358 
     68 O          36.5585   24.8755    7.2402 O.2       11 UNK        -0.4999 
     69 C69        35.6720   24.3917    4.3191 C.3       12 UNK        -0.0954 
     70 S70        36.1143   24.6753    2.5730 S.3       12 UNK        -0.2268 
     71 C71        34.6203   24.1106    1.6969 C.3       12 UNK         0.0203 
     72 H72        26.6226   29.9080    4.5710 H         1 UNK         0.0888 
     73 H73        28.2119   29.3461    5.1018 H         1 UNK         0.0888 
     74 H74        27.8081   29.3528    3.3908 H         1 UNK         0.0888 
     75 H75        27.1462   27.3543    2.5356 H         1 UNK         0.3017 
     76 H76        25.6086   25.4814    4.1813 H         1 UNK         0.0873 
     77 H77        27.1535   23.5945    3.7844 H         1 UNK         0.0745 
     78 H78        27.9305   24.8241    4.7229 H         1 UNK         0.0745 
     79 H79        30.3841   25.2195    4.3259 H         1 UNK         0.0705 
     80 H80        29.6460   26.6438    3.6288 H         1 UNK         0.0705 
     81 H81        32.2547   24.0404    3.0828 H         1 UNK         0.1334 
     82 H82        34.5412   26.4885    0.4084 H         1 UNK         0.1417 
     83 H83        30.7253   27.8444    1.8381 H         1 UNK         0.1562 
     84 H84        33.9395   28.7556    0.0802 H         1 UNK         0.0748 
     85 H85        32.6121   29.4638    0.9408 H         1 UNK         0.0748 
     86 H86        30.1548   30.2716   -1.1722 H         1 UNK         0.0940 
     87 H87        30.4154   29.5356    0.3668 H         1 UNK         0.0940 
     88 H88        28.7908   28.5699   -2.0062 H         1 UNK         0.0703 
     89 H89        30.3954   26.7124   -0.5532 H         1 UNK         0.3081 
     90 H90        29.3627   24.2355   -2.5446 H         1 UNK         0.0719 
     91 H91        31.4726   25.1031   -1.4778 H         1 UNK         0.0809 
     92 H92        30.8419   24.6549    0.1074 H         1 UNK         0.0809 
     93 H93        31.1864   23.4202   -1.0897 H         1 UNK         0.0809 
     94 H94        27.9259   24.0682   -0.0157 H         1 UNK         0.2990 
     95 H95        26.8647   20.7950   -0.6856 H         1 UNK         0.0690 
     96 H96        27.5456   20.1924    1.6293 H         1 UNK         0.0788 
     97 H97        28.7055   21.5223    1.6591 H         1 UNK         0.0788 
     98 H98        28.9367   20.1711    0.5591 H         1 UNK         0.0788 
     99 H99        26.4749   22.5540    1.5568 H         1 UNK         0.2993 
    100 H100       23.9070   24.5052    0.2349 H         1 UNK         0.0949 
    101 H101       23.3754   21.9423    1.8390 H         1 UNK         0.0767 
    102 H102       22.3352   23.3671    1.7972 H         1 UNK         0.0767 
    103 H103       22.5693   22.4061    0.3471 H         1 UNK         0.0767 
    104 H104       24.7537   23.6828    2.9069 H         1 UNK         0.3013 
    105 H105       27.1214   29.8993   -1.3469 H         1 UNK         0.3121 
    106 H106       25.7672   29.4521    1.2151 H         1 UNK         0.0774 
    107 H107       24.2022   31.1807    0.3457 H         1 UNK         0.0815 
    108 H108       25.2571   31.4857   -1.0267 H         1 UNK         0.0815 
    109 H109       24.4564   29.9227   -0.8514 H         1 UNK         0.0815 
    110 H110       28.3615   31.4061    0.0853 H         1 UNK         0.2987 
    111 H111       28.0992   33.6941    1.7999 H         1 UNK         0.0949 
    112 H112       29.4644   33.6967   -0.3028 H         1 UNK         0.0806 
    113 H113       30.4602   34.1101    1.0805 H         1 UNK         0.0806 
    114 H114       30.5575   32.4972    0.3893 H         1 UNK         0.0806 
    115 H115       29.2232   34.1936    3.6881 H         1 UNK         0.3010 
    116 H116       29.4142   32.1386    5.6211 H         1 UNK         0.0829 
    117 H117       28.7070   34.4588    6.1458 H         1 UNK         0.0813 
    118 H118       30.0874   34.0144    7.1325 H         1 UNK         0.0813 
    119 H119       30.3138   35.0691    5.7448 H         1 UNK         0.0813 
    120 H120       31.8618   33.2305    3.4523 H         1 UNK         0.3038 
    121 H121       34.1889   32.5678    5.0720 H         1 UNK         0.0769 
    122 H122       34.2861   34.3163    3.3069 H         1 UNK         0.0811 
    123 H123       33.8956   33.1194    2.0707 H         1 UNK         0.0811 
    124 H124       35.4123   33.0177    2.9543 H         1 UNK         0.0811 
    125 H125       32.7882   30.4680    5.5015 H         1 UNK         0.3204 
    126 H126       33.0446   28.3413    3.5348 H         1 UNK         0.0748 
    127 H127       31.8390   27.0236    5.3325 H         1 UNK         0.0771 
    128 H128       32.0004   28.3888    6.4256 H         1 UNK         0.0771 
    129 H129       31.0225   28.5334    4.9657 H         1 UNK         0.0771 
    130 H130       33.9056   26.2156    4.0575 H         1 UNK         0.2980 
    131 H131       36.5855   26.2090    5.0174 H         1 UNK         0.0545 
    132 H132       34.4377   25.3336    8.3527 H         1 UNK         0.3459 
    133 H133       33.6424   25.9463    6.9255 H         1 UNK         0.3459 
    134 H134       36.4173   23.7000    4.7167 H         1 UNK         0.0616 
    135 H135       34.7157   23.8698    4.3827 H         1 UNK         0.0616 
    136 H136       34.8810   23.9125    0.6563 H         1 UNK         0.0634 
    137 H137       34.2839   23.1592    2.1117 H         1 UNK         0.0634 
@<TRIPOS>BOND
     1    1    2 1    
     2    1   72 1    
     3    1   73 1    
     4    1   74 1    
     5    2    3 2    
     6    2    4 am   BACKBONE|DICT|INTERRES
     7    4    5 1    
     8    4   75 1    
     9    5    6 1    
    10    5   35 1    
    11    5   76 1    
    12    6    7 1    
    13    6   77 1    
    14    6   78 1    
    15    7    8 1    
    16    8    9 1    
    17    8   79 1    
    18    8   80 1    
    19    9   10 ar   
    20    9   14 ar   
    21   10   11 ar   
    22   10   81 1    
    23   11   12 ar   
    24   11   71 1    
    25   12   13 ar   
    26   12   82 1    
    27   13   14 ar   
    28   13   15 1    
    29   14   83 1    
    30   15   16 1    
    31   15   84 1    
    32   15   85 1    
    33   16   17 1    
    34   17   18 1    
    35   17   86 1    
    36   17   87 1    
    37   18   19 1    
    38   18   37 1    
    39   18   88 1    
    40   19   20 am   BACKBONE|DICT|INTERRES
    41   19   89 1    
    42   20   21 2    
    43   20   22 1    
    44   22   23 1    
    45   22   24 1    
    46   22   90 1    
    47   23   91 1    
    48   23   92 1    
    49   23   93 1    
    50   24   25 am   BACKBONE|DICT|INTERRES
    51   24   94 1    
    52   25   26 2    
    53   25   27 1    
    54   27   28 1    
    55   27   29 1    
    56   27   95 1    
    57   28   96 1    
    58   28   97 1    
    59   28   98 1    
    60   29   30 am   BACKBONE|DICT|INTERRES
    61   29   99 1    
    62   30   31 2    
    63   30   32 1    
    64   32   33 1    
    65   32   34 1    
    66   32  100 1    
    67   33  101 1    
    68   33  102 1    
    69   33  103 1    
    70   34   35 am   BACKBONE|DICT|INTERRES
    71   34  104 1    
    72   35   36 2    
    73   37   38 2    
    74   37   39 am   BACKBONE|DICT|INTERRES
    75   39   40 1    
    76   39  105 1    
    77   40   41 1    
    78   40   42 1    
    79   40  106 1    
    80   41  107 1    
    81   41  108 1    
    82   41  109 1    
    83   42   43 2    
    84   42   44 am   BACKBONE|DICT|INTERRES
    85   44   45 1    
    86   44  110 1    
    87   45   46 1    
    88   45   47 1    
    89   45  111 1    
    90   46  112 1    
    91   46  113 1    
    92   46  114 1    
    93   47   48 2    
    94   47   49 am   BACKBONE|DICT|INTERRES
    95   49   50 1    
    96   49  115 1    
    97   50   51 1    
    98   50   52 1    
    99   50  116 1    
   100   51  117 1    
   101   51  118 1    
   102   51  119 1    
   103   52   53 2    
   104   52   54 am   BACKBONE|DICT|INTERRES
   105   54   55 1    
   106   54  120 1    
   107   55   56 1    
   108   55   57 1    
   109   55  121 1    
   110   56  122 1    
   111   56  123 1    
   112   56  124 1    
   113   57   58 2    
   114   57   59 am   BACKBONE|DICT|INTERRES
   115   59   60 1    
   116   59  125 1    
   117   60   61 1    
   118   60   62 1    
   119   60  126 1    
   120   61  127 1    
   121   61  128 1    
   122   61  129 1    
   123   62   63 2    
   124   62   64 am   BACKBONE|DICT|INTERRES
   125   64   65 1    
   126   64  130 1    
   127   65   66 1    
   128   65   69 1    
   129   65  131 1    
   130   66   67 am   BACKBONE|DICT|INTERRES
   131   66   68 2    
   132   67  132 1    
   133   67  133 1    
   134   69   70 1    
   135   69  134 1    
   136   69  135 1    
   137   70   71 1    
   138   71  136 1    
   139   71  137 1    
@<TRIPOS>SUBSTRUCTURE
     1 UNK         1 GROUP             0       ****    0 ROOT    
