@<TRIPOS>MOLECULE
3R136
137   139    1
SMALL
USER_CHARGES


@<TRIPOS>ATOM
      1 CA         29.3198   19.4385   -1.5874 C.3       0 UNK        -0.1979 
      2 C          29.6145   20.6311   -2.4850 C.2       0 UNK         0.4864 
      3 O          29.6230   20.4897   -3.7083 O.2       0 UNK        -0.5359 
      4 N          29.8469   21.8070   -1.8871 N.am      1 UNK        -0.4318 
      5 CA         30.1564   23.0639   -2.5822 C.3       1 UNK         0.0824 
      6 C6         31.1069   23.9623   -1.7470 C.3       12 UNK        -0.0944 
      7 S7         30.4890   24.4041   -0.0826 S.3       12 UNK        -0.2672 
      8 C8         31.5371   23.3532    0.9710 C.3       12 UNK         0.0333 
      9 C9         31.5152   23.8096    2.4217 C.ar      12 UNK        -0.0807 
     10 C10        32.4843   24.7040    2.8825 C.ar      12 UNK        -0.0894 
     11 C11        32.5082   25.1025    4.2220 C.ar      12 UNK        -0.0804 
     12 C12        31.5483   24.6026    5.1066 C.ar      12 UNK        -0.0824 
     13 C13        30.5770   23.7006    4.6592 C.ar      12 UNK        -0.0762 
     14 C14        30.5605   23.3129    3.3143 C.ar      12 UNK        -0.0782 
     15 C15        29.5744   23.1030    5.6352 C.3       12 UNK         0.0230 
     16 S16        27.9400   23.8886    5.5062 S.3       12 UNK        -0.2608 
     17 C17        28.2136   25.4943    6.3346 C.3       12 UNK        -0.0989 
     18 CA         28.2494   26.6964    5.3522 C.3       5 UNK         0.0716 
     19 N          27.0774   26.6947    4.4615 N.am      5 UNK        -0.4135 
     20 C          26.9494   27.3477    3.3008 C.2       4 UNK         0.5031 
     21 O          27.7928   28.1345    2.8590 O.2       4 UNK        -0.5229 
     22 CA         25.6208   27.1586    2.5517 C.3       4 UNK         0.0329 
     23 CB         24.5674   28.1451    3.0825 C.3       4 UNK        -0.2001 
     24 N          25.7843   27.3662    1.1119 N.am      4 UNK        -0.4303 
     25 C          26.4685   26.5462    0.3052 C.2       3 UNK         0.5044 
     26 O          26.9562   25.4730    0.6693 O.2       3 UNK        -0.5152 
     27 CA         26.6544   27.0293   -1.1444 C.3       3 UNK         0.0319 
     28 CB         27.8767   27.9574   -1.2468 C.3       3 UNK        -0.2001 
     29 N          26.8370   25.9104   -2.0675 N.am      3 UNK        -0.4354 
     30 C          25.9063   25.0025   -2.3830 C.2       2 UNK         0.4964 
     31 O          24.7247   25.0946   -2.0465 O.2       2 UNK        -0.5047 
     32 CA         26.3583   23.7680   -3.1866 C.3       2 UNK         0.0288 
     33 CB         26.2021   23.9999   -4.7029 C.3       2 UNK        -0.2113 
     34 N          27.7010   23.2662   -2.8454 N.am      2 UNK        -0.4145 
     35 C          28.9017   23.8245   -3.0724 C.2       1 UNK         0.5006 
     36 O          29.0455   24.9136   -3.6313 O.2       1 UNK        -0.5103 
     37 C          28.4260   28.0459    6.0975 C.2       5 UNK         0.5055 
     38 O          28.5747   28.0677    7.3200 O.2       5 UNK        -0.5220 
     39 N          28.3768   29.1442    5.3406 N.am      6 UNK        -0.4450 
     40 CA         28.4490   30.5441    5.7543 C.3       6 UNK         0.0367 
     41 CB         27.2413   30.9381    6.6273 C.3       6 UNK        -0.1929 
     42 C          28.5253   31.4417    4.5108 C.2       6 UNK         0.5070 
     43 O          29.2590   32.4291    4.5208 O.2       6 UNK        -0.5237 
     44 N          27.7778   31.0740    3.4576 N.am      7 UNK        -0.4739 
     45 CA         27.8360   31.6945    2.1314 C.3       7 UNK         0.0276 
     46 CB         26.5620   31.3390    1.3482 C.3       7 UNK        -0.1927 
     47 C          29.0869   31.2668    1.3440 C.2       7 UNK         0.5013 
     48 O          29.6023   32.0609    0.5555 O.2       7 UNK        -0.5193 
     49 N          29.5493   30.0285    1.5748 N.am      8 UNK        -0.4253 
     50 CA         30.8116   29.4808    1.0767 C.3       8 UNK         0.0242 
     51 CB         30.8994   28.0000    1.4817 C.3       8 UNK        -0.2000 
     52 C          32.0314   30.2778    1.5839 C.2       8 UNK         0.4948 
     53 O          31.9821   30.8466    2.6785 O.2       8 UNK        -0.5275 
     54 N          33.0867   30.3112    0.7568 N.am      9 UNK        -0.4246 
     55 CA         34.2896   31.1456    0.8744 C.3       9 UNK         0.0261 
     56 CB         35.2876   30.7360   -0.2239 C.3       9 UNK        -0.1959 
     57 C          34.9554   31.1305    2.2642 C.2       9 UNK         0.5033 
     58 O          35.7115   30.2068    2.5710 O.2       9 UNK        -0.5390 
     59 N          34.6541   32.1675    3.0607 N.am      10 UNK        -0.4215 
     60 CA         35.1215   32.4201    4.4301 C.3       10 UNK         0.0240 
     61 CB         36.6461   32.6666    4.4532 C.3       10 UNK        -0.1982 
     62 C          34.6755   31.3616    5.4617 C.2       10 UNK         0.4970 
     63 O          35.3142   31.2369    6.5086 O.2       10 UNK        -0.4916 
     64 N          33.5892   30.6330    5.1729 N.am      11 UNK        -0.4279 
     65 CA         33.0435   29.5773    6.0434 C.3       11 UNK         0.1003 
     66 C          32.1885   30.1024    7.2312 C.2       11 UNK         0.5709 
     67 N          31.8441   31.3838    7.2919 N.am      11 UNK        -0.7358 
     68 O          31.8542   29.3359    8.1304 O.2       11 UNK        -0.4999 
     69 C69        32.2939   28.4962    5.2235 C.3       12 UNK        -0.0954 
     70 S70        33.4145   27.7054    4.0199 S.3       12 UNK        -0.2268 
     71 C71        33.6053   26.0362    4.7087 C.3       12 UNK         0.0203 
     72 H72        29.3389   19.7073   -0.5314 H         1 UNK         0.0888 
     73 H73        28.3356   19.0301   -1.8159 H         1 UNK         0.0888 
     74 H74        30.0597   18.6553   -1.7505 H         1 UNK         0.0888 
     75 H75        29.8088   21.8734   -0.8798 H         1 UNK         0.3017 
     76 H76        30.7012   22.8124   -3.4950 H         1 UNK         0.0873 
     77 H77        32.0718   23.4625   -1.6521 H         1 UNK         0.0745 
     78 H78        31.3270   24.8890   -2.2805 H         1 UNK         0.0745 
     79 H79        32.5644   23.3731    0.6038 H         1 UNK         0.0705 
     80 H80        31.2060   22.3166    0.8966 H         1 UNK         0.0705 
     81 H81        33.2304   25.0868    2.1992 H         1 UNK         0.1334 
     82 H82        31.5716   24.8971    6.1469 H         1 UNK         0.1417 
     83 H83        29.8118   22.6140    2.9666 H         1 UNK         0.1562 
     84 H84        29.9378   23.1718    6.6618 H         1 UNK         0.0748 
     85 H85        29.4646   22.0374    5.4282 H         1 UNK         0.0748 
     86 H86        29.1368   25.4507    6.9152 H         1 UNK         0.0940 
     87 H87        27.4113   25.6249    7.0636 H         1 UNK         0.0940 
     88 H88        29.1345   26.5761    4.7227 H         1 UNK         0.0703 
     89 H89        26.3215   26.0944    4.7571 H         1 UNK         0.3081 
     90 H90        25.2671   26.1381    2.7143 H         1 UNK         0.0719 
     91 H91        24.8727   29.1825    2.9412 H         1 UNK         0.0809 
     92 H92        23.6085   28.0076    2.5823 H         1 UNK         0.0809 
     93 H93        24.3950   28.0003    4.1500 H         1 UNK         0.0809 
     94 H94        25.4296   28.2327    0.7366 H         1 UNK         0.2990 
     95 H95        25.7626   27.5816   -1.4480 H         1 UNK         0.0690 
     96 H96        27.9820   28.3654   -2.2522 H         1 UNK         0.0788 
     97 H97        28.7998   27.4305   -1.0019 H         1 UNK         0.0788 
     98 H98        27.7921   28.8017   -0.5616 H         1 UNK         0.0788 
     99 H99        27.7757   25.7502   -2.4175 H         1 UNK         0.2993 
    100 H100       25.6738   22.9634   -2.9122 H         1 UNK         0.0949 
    101 H101       26.8252   24.8206   -5.0591 H         1 UNK         0.0767 
    102 H102       26.4658   23.1069   -5.2698 H         1 UNK         0.0767 
    103 H103       25.1696   24.2489   -4.9519 H         1 UNK         0.0767 
    104 H104       27.7084   22.3873   -2.3479 H         1 UNK         0.3013 
    105 H105       28.2873   28.9806    4.3395 H         1 UNK         0.3121 
    106 H106       29.3641   30.6827    6.3297 H         1 UNK         0.0774 
    107 H107       27.2699   32.0004    6.8738 H         1 UNK         0.0815 
    108 H108       26.2958   30.7451    6.1195 H         1 UNK         0.0815 
    109 H109       27.2321   30.3931    7.5709 H         1 UNK         0.0815 
    110 H110       27.1815   30.2640    3.5407 H         1 UNK         0.2987 
    111 H111       27.8748   32.7792    2.2552 H         1 UNK         0.0949 
    112 H112       26.5644   31.8137    0.3660 H         1 UNK         0.0806 
    113 H113       26.4741   30.2642    1.1897 H         1 UNK         0.0806 
    114 H114       25.6667   31.6786    1.8692 H         1 UNK         0.0806 
    115 H115       29.0073   29.4203    2.1801 H         1 UNK         0.3010 
    116 H116       30.7865   29.5433   -0.0131 H         1 UNK         0.0829 
    117 H117       30.0918   27.4165    1.0399 H         1 UNK         0.0813 
    118 H118       31.8384   27.5510    1.1555 H         1 UNK         0.0813 
    119 H119       30.8340   27.8733    2.5621 H         1 UNK         0.0813 
    120 H120       33.0259   29.7679   -0.0918 H         1 UNK         0.3038 
    121 H121       33.9805   32.1711    0.6626 H         1 UNK         0.0769 
    122 H122       36.1982   31.3342   -0.1672 H         1 UNK         0.0811 
    123 H123       34.8686   30.8820   -1.2196 H         1 UNK         0.0811 
    124 H124       35.5806   29.6892   -0.1320 H         1 UNK         0.0811 
    125 H125       33.9752   32.8319    2.7138 H         1 UNK         0.3204 
    126 H126       34.6393   33.3482    4.7402 H         1 UNK         0.0748 
    127 H127       36.9744   33.0112    5.4346 H         1 UNK         0.0771 
    128 H128       37.2059   31.7591    4.2245 H         1 UNK         0.0771 
    129 H129       36.9359   33.4305    3.7317 H         1 UNK         0.0771 
    130 H130       33.1049   30.7771    4.2906 H         1 UNK         0.2980 
    131 H131       33.8909   29.0747    6.5142 H         1 UNK         0.0545 
    132 H132       31.3082   31.7140    8.0782 H         1 UNK         0.3459 
    133 H133       32.1119   32.0195    6.5581 H         1 UNK         0.3459 
    134 H134       31.8657   27.7318    5.8744 H         1 UNK         0.0616 
    135 H135       31.4564   28.9406    4.6834 H         1 UNK         0.0616 
    136 H136       34.5712   25.6400    4.3924 H         1 UNK         0.0634 
    137 H137       33.6379   26.0832    5.7983 H         1 UNK         0.0634 
@<TRIPOS>BOND
     1    1    2 1    
     2    1   72 1    
     3    1   73 1    
     4    1   74 1    
     5    2    3 2    
     6    2    4 am   BACKBONE|DICT|INTERRES
     7    4    5 1    
     8    4   75 1    
     9    5    6 1    
    10    5   35 1    
    11    5   76 1    
    12    6    7 1    
    13    6   77 1    
    14    6   78 1    
    15    7    8 1    
    16    8    9 1    
    17    8   79 1    
    18    8   80 1    
    19    9   10 ar   
    20    9   14 ar   
    21   10   11 ar   
    22   10   81 1    
    23   11   12 ar   
    24   11   71 1    
    25   12   13 ar   
    26   12   82 1    
    27   13   14 ar   
    28   13   15 1    
    29   14   83 1    
    30   15   16 1    
    31   15   84 1    
    32   15   85 1    
    33   16   17 1    
    34   17   18 1    
    35   17   86 1    
    36   17   87 1    
    37   18   19 1    
    38   18   37 1    
    39   18   88 1    
    40   19   20 am   BACKBONE|DICT|INTERRES
    41   19   89 1    
    42   20   21 2    
    43   20   22 1    
    44   22   23 1    
    45   22   24 1    
    46   22   90 1    
    47   23   91 1    
    48   23   92 1    
    49   23   93 1    
    50   24   25 am   BACKBONE|DICT|INTERRES
    51   24   94 1    
    52   25   26 2    
    53   25   27 1    
    54   27   28 1    
    55   27   29 1    
    56   27   95 1    
    57   28   96 1    
    58   28   97 1    
    59   28   98 1    
    60   29   30 am   BACKBONE|DICT|INTERRES
    61   29   99 1    
    62   30   31 2    
    63   30   32 1    
    64   32   33 1    
    65   32   34 1    
    66   32  100 1    
    67   33  101 1    
    68   33  102 1    
    69   33  103 1    
    70   34   35 am   BACKBONE|DICT|INTERRES
    71   34  104 1    
    72   35   36 2    
    73   37   38 2    
    74   37   39 am   BACKBONE|DICT|INTERRES
    75   39   40 1    
    76   39  105 1    
    77   40   41 1    
    78   40   42 1    
    79   40  106 1    
    80   41  107 1    
    81   41  108 1    
    82   41  109 1    
    83   42   43 2    
    84   42   44 am   BACKBONE|DICT|INTERRES
    85   44   45 1    
    86   44  110 1    
    87   45   46 1    
    88   45   47 1    
    89   45  111 1    
    90   46  112 1    
    91   46  113 1    
    92   46  114 1    
    93   47   48 2    
    94   47   49 am   BACKBONE|DICT|INTERRES
    95   49   50 1    
    96   49  115 1    
    97   50   51 1    
    98   50   52 1    
    99   50  116 1    
   100   51  117 1    
   101   51  118 1    
   102   51  119 1    
   103   52   53 2    
   104   52   54 am   BACKBONE|DICT|INTERRES
   105   54   55 1    
   106   54  120 1    
   107   55   56 1    
   108   55   57 1    
   109   55  121 1    
   110   56  122 1    
   111   56  123 1    
   112   56  124 1    
   113   57   58 2    
   114   57   59 am   BACKBONE|DICT|INTERRES
   115   59   60 1    
   116   59  125 1    
   117   60   61 1    
   118   60   62 1    
   119   60  126 1    
   120   61  127 1    
   121   61  128 1    
   122   61  129 1    
   123   62   63 2    
   124   62   64 am   BACKBONE|DICT|INTERRES
   125   64   65 1    
   126   64  130 1    
   127   65   66 1    
   128   65   69 1    
   129   65  131 1    
   130   66   67 am   BACKBONE|DICT|INTERRES
   131   66   68 2    
   132   67  132 1    
   133   67  133 1    
   134   69   70 1    
   135   69  134 1    
   136   69  135 1    
   137   70   71 1    
   138   71  136 1    
   139   71  137 1    
@<TRIPOS>SUBSTRUCTURE
     1 UNK         1 GROUP             0       ****    0 ROOT    
