@<TRIPOS>MOLECULE
3R136
137   139    1
SMALL
USER_CHARGES


@<TRIPOS>ATOM
      1 CA         27.3970   21.6026    1.7132 C.3       0 UNK        -0.1979 
      2 C          27.7857   22.1336    0.3416 C.2       0 UNK         0.4864 
      3 O          27.2131   21.7118   -0.6639 O.2       0 UNK        -0.5359 
      4 N          28.7641   23.0461    0.2945 N.am      1 UNK        -0.4318 
      5 CA         29.2468   23.6905   -0.9316 C.3       1 UNK         0.0824 
      6 C6         30.6226   24.3733   -0.7296 C.3       12 UNK        -0.0944 
      7 S7         31.9346   23.1697   -0.3347 S.3       12 UNK        -0.2672 
      8 C8         33.1770   24.2378    0.4773 C.3       12 UNK         0.0333 
      9 C9         32.9423   24.5503    1.9593 C.ar      12 UNK        -0.0807 
     10 C10        33.9752   25.1622    2.6761 C.ar      12 UNK        -0.0894 
     11 C11        33.8413   25.4603    4.0360 C.ar      12 UNK        -0.0804 
     12 C12        32.6353   25.1514    4.6800 C.ar      12 UNK        -0.0824 
     13 C13        31.5818   24.5525    3.9820 C.ar      12 UNK        -0.0762 
     14 C14        31.7510   24.2440    2.6282 C.ar      12 UNK        -0.0782 
     15 C15        30.2990   24.1822    4.7256 C.3       12 UNK         0.0230 
     16 S16        28.7709   24.3647    3.7411 S.3       12 UNK        -0.2608 
     17 C17        28.4990   26.1689    3.7780 C.3       12 UNK        -0.0989 
     18 CA         27.9623   26.7281    2.4293 C.3       5 UNK         0.0716 
     19 N          26.7837   26.0346    1.8982 N.am      5 UNK        -0.4135 
     20 C          25.5997   25.8618    2.4966 C.2       4 UNK         0.5031 
     21 O          25.3137   26.3208    3.6043 O.2       4 UNK        -0.5229 
     22 CA         24.5689   25.0248    1.7094 C.3       4 UNK         0.0329 
     23 CB         23.2151   24.9008    2.4407 C.3       4 UNK        -0.2001 
     24 N          24.3625   25.4848    0.3285 N.am      4 UNK        -0.4303 
     25 C          23.9636   26.7007   -0.0712 C.2       3 UNK         0.5044 
     26 O          23.7889   27.6495    0.6931 O.2       3 UNK        -0.5152 
     27 CA         23.7341   26.8830   -1.5854 C.3       3 UNK         0.0319 
     28 CB         23.1214   28.2524   -1.9355 C.3       3 UNK        -0.2001 
     29 N          24.9770   26.7144   -2.3393 N.am      3 UNK        -0.4354 
     30 C          25.5236   25.5391   -2.6752 C.2       2 UNK         0.4964 
     31 O          24.9960   24.4534   -2.4242 O.2       2 UNK        -0.5047 
     32 CA         26.8985   25.5648   -3.3788 C.3       2 UNK         0.0288 
     33 CB         27.4994   26.9815   -3.5438 C.3       2 UNK        -0.2113 
     34 N          27.8674   24.6805   -2.7157 N.am      2 UNK        -0.4145 
     35 C          28.2099   24.7172   -1.4193 C.2       1 UNK         0.5006 
     36 O          27.7571   25.5318   -0.6128 O.2       1 UNK        -0.5103 
     37 C          27.8051   28.2644    2.4343 C.2       5 UNK         0.5055 
     38 O          28.5304   28.9391    3.1673 O.2       5 UNK        -0.5220 
     39 N          26.9055   28.8081    1.5971 N.am      6 UNK        -0.4450 
     40 CA         26.7360   30.2476    1.3653 C.3       6 UNK         0.0367 
     41 CB         25.6179   30.4842    0.3386 C.3       6 UNK        -0.1929 
     42 C          28.0482   30.8899    0.8875 C.2       6 UNK         0.5070 
     43 O          28.6218   30.4255   -0.1002 O.2       6 UNK        -0.5237 
     44 N          28.5308   31.8874    1.6410 N.am      7 UNK        -0.4739 
     45 CA         29.8421   32.5521    1.5551 C.3       7 UNK         0.0276 
     46 CB         30.0525   33.2391    0.1915 C.3       7 UNK        -0.1927 
     47 C          31.0349   31.6424    1.9127 C.2       7 UNK         0.5013 
     48 O          31.9254   32.0838    2.6397 O.2       7 UNK        -0.5193 
     49 N          31.0214   30.3900    1.4350 N.am      8 UNK        -0.4253 
     50 CA         32.0345   29.3555    1.6657 C.3       8 UNK         0.0242 
     51 CB         31.6402   28.0738    0.9155 C.3       8 UNK        -0.2000 
     52 C          32.3034   29.0510    3.1496 C.2       8 UNK         0.4948 
     53 O          33.4458   28.7504    3.4880 O.2       8 UNK        -0.5275 
     54 N          31.2763   29.1910    4.0046 N.am      9 UNK        -0.4246 
     55 CA         31.3412   29.0565    5.4648 C.3       9 UNK         0.0261 
     56 CB         29.9298   29.2055    6.0568 C.3       9 UNK        -0.1959 
     57 C          32.3165   30.0174    6.1743 C.2       9 UNK         0.5033 
     58 O          32.6686   29.7564    7.3266 O.2       9 UNK        -0.5390 
     59 N          32.7757   31.0832    5.5005 N.am      10 UNK        -0.4215 
     60 CA         33.9033   31.9119    5.9363 C.3       10 UNK         0.0240 
     61 CB         33.8096   33.2907    5.2570 C.3       10 UNK        -0.1982 
     62 C          35.2348   31.1886    5.6425 C.2       10 UNK         0.4970 
     63 O          36.0146   31.6418    4.8025 O.2       10 UNK        -0.4916 
     64 N          35.4416   30.0488    6.3137 N.am      11 UNK        -0.4279 
     65 CA         36.5443   29.1023    6.0806 C.3       11 UNK         0.1003 
     66 C          37.9565   29.6128    6.4906 C.2       11 UNK         0.5709 
     67 N          38.0806   30.6913    7.2553 N.am      11 UNK        -0.7358 
     68 O          38.9597   29.0185    6.1026 O.2       11 UNK        -0.4999 
     69 C69        36.2592   27.7119    6.7154 C.3       12 UNK        -0.0954 
     70 S70        34.6295   27.0168    6.2750 S.3       12 UNK        -0.2268 
     71 C71        35.0387   26.0738    4.7684 C.3       12 UNK         0.0203 
     72 H72        28.2262   21.6701    2.4171 H         1 UNK         0.0888 
     73 H73        26.5575   22.1680    2.1154 H         1 UNK         0.0888 
     74 H74        27.1031   20.5554    1.6460 H         1 UNK         0.0888 
     75 H75        29.1629   23.3846    1.1567 H         1 UNK         0.3017 
     76 H76        29.3574   22.9198   -1.6978 H         1 UNK         0.0873 
     77 H77        30.9260   24.9022   -1.6355 H         1 UNK         0.0745 
     78 H78        30.5672   25.1271    0.0586 H         1 UNK         0.0745 
     79 H79        33.2594   25.1731   -0.0780 H         1 UNK         0.0705 
     80 H80        34.1433   23.7404    0.3805 H         1 UNK         0.0705 
     81 H81        34.9032   25.3960    2.1719 H         1 UNK         0.1334 
     82 H82        32.5163   25.3576    5.7341 H         1 UNK         0.1417 
     83 H83        30.9494   23.7495    2.1053 H         1 UNK         0.1562 
     84 H84        30.1982   24.7718    5.6383 H         1 UNK         0.0748 
     85 H85        30.3801   23.1413    5.0409 H         1 UNK         0.0748 
     86 H86        29.4465   26.6500    4.0277 H         1 UNK         0.0940 
     87 H87        27.8145   26.4020    4.5951 H         1 UNK         0.0940 
     88 H88        28.7392   26.5361    1.6897 H         1 UNK         0.0703 
     89 H89        26.9192   25.6730    0.9547 H         1 UNK         0.3081 
     90 H90        24.9902   24.0217    1.6341 H         1 UNK         0.0719 
     91 H91        22.7368   25.8719    2.5735 H         1 UNK         0.0809 
     92 H92        22.5251   24.2590    1.8931 H         1 UNK         0.0809 
     93 H93        23.3447   24.4642    3.4318 H         1 UNK         0.0809 
     94 H94        24.5325   24.7998   -0.4011 H         1 UNK         0.2990 
     95 H95        23.0206   26.1171   -1.8976 H         1 UNK         0.0690 
     96 H96        22.9029   28.3275   -3.0008 H         1 UNK         0.0788 
     97 H97        23.7851   29.0757   -1.6713 H         1 UNK         0.0788 
     98 H98        22.1822   28.4073   -1.4027 H         1 UNK         0.0788 
     99 H99        25.4953   27.5552   -2.5488 H         1 UNK         0.2993 
    100 H100       26.7328   25.1546   -4.3762 H         1 UNK         0.0949 
    101 H101       27.6744   27.4707   -2.5842 H         1 UNK         0.0767 
    102 H102       28.4556   26.9391   -4.0657 H         1 UNK         0.0767 
    103 H103       26.8476   27.6250   -4.1363 H         1 UNK         0.0767 
    104 H104       28.2590   23.9517   -3.2960 H         1 UNK         0.3013 
    105 H105       26.3351   28.1892    1.0395 H         1 UNK         0.3121 
    106 H106       26.4371   30.7024    2.3119 H         1 UNK         0.0774 
    107 H107       25.5060   31.5471    0.1202 H         1 UNK         0.0815 
    108 H108       25.8249   29.9776   -0.6047 H         1 UNK         0.0815 
    109 H109       24.6562   30.1319    0.7105 H         1 UNK         0.0815 
    110 H110       27.9835   32.1544    2.4484 H         1 UNK         0.2987 
    111 H111       29.8208   33.3382    2.3121 H         1 UNK         0.0949 
    112 H112       30.1260   32.5206   -0.6252 H         1 UNK         0.0806 
    113 H113       29.2367   33.9248   -0.0371 H         1 UNK         0.0806 
    114 H114       30.9749   33.8213    0.1907 H         1 UNK         0.0806 
    115 H115       30.2357   30.1443    0.8380 H         1 UNK         0.3010 
    116 H116       32.9687   29.7261    1.2391 H         1 UNK         0.0829 
    117 H117       31.5176   28.2549   -0.1524 H         1 UNK         0.0813 
    118 H118       32.4084   27.3085    1.0295 H         1 UNK         0.0813 
    119 H119       30.7094   27.6575    1.2967 H         1 UNK         0.0813 
    120 H120       30.3543   29.3782    3.6177 H         1 UNK         0.3038 
    121 H121       31.6932   28.0446    5.6745 H         1 UNK         0.0769 
    122 H122       29.9492   29.1402    7.1456 H         1 UNK         0.0811 
    123 H123       29.2641   28.4185    5.7052 H         1 UNK         0.0811 
    124 H124       29.4831   30.1651    5.7940 H         1 UNK         0.0811 
    125 H125       32.4611   31.2241    4.5461 H         1 UNK         0.3204 
    126 H126       33.8406   32.0690    7.0153 H         1 UNK         0.0748 
    127 H127       33.8797   33.2131    4.1712 H         1 UNK         0.0771 
    128 H128       32.8689   33.7872    5.4957 H         1 UNK         0.0771 
    129 H129       34.6162   33.9450    5.5902 H         1 UNK         0.0771 
    130 H130       34.7127   29.7339    6.9443 H         1 UNK         0.2980 
    131 H131       36.5918   28.9543    5.0001 H         1 UNK         0.0545 
    132 H132       39.0006   31.0136    7.5107 H         1 UNK         0.3459 
    133 H133       37.2636   31.1859    7.5750 H         1 UNK         0.3459 
    134 H134       37.0315   26.9938    6.4335 H         1 UNK         0.0616 
    135 H135       36.2981   27.7844    7.8038 H         1 UNK         0.0616 
    136 H136       35.5685   26.7444    4.0899 H         1 UNK         0.0634 
    137 H137       35.7339   25.2755    5.0302 H         1 UNK         0.0634 
@<TRIPOS>BOND
     1    1    2 1    
     2    1   72 1    
     3    1   73 1    
     4    1   74 1    
     5    2    3 2    
     6    2    4 am   BACKBONE|DICT|INTERRES
     7    4    5 1    
     8    4   75 1    
     9    5    6 1    
    10    5   35 1    
    11    5   76 1    
    12    6    7 1    
    13    6   77 1    
    14    6   78 1    
    15    7    8 1    
    16    8    9 1    
    17    8   79 1    
    18    8   80 1    
    19    9   10 ar   
    20    9   14 ar   
    21   10   11 ar   
    22   10   81 1    
    23   11   12 ar   
    24   11   71 1    
    25   12   13 ar   
    26   12   82 1    
    27   13   14 ar   
    28   13   15 1    
    29   14   83 1    
    30   15   16 1    
    31   15   84 1    
    32   15   85 1    
    33   16   17 1    
    34   17   18 1    
    35   17   86 1    
    36   17   87 1    
    37   18   19 1    
    38   18   37 1    
    39   18   88 1    
    40   19   20 am   BACKBONE|DICT|INTERRES
    41   19   89 1    
    42   20   21 2    
    43   20   22 1    
    44   22   23 1    
    45   22   24 1    
    46   22   90 1    
    47   23   91 1    
    48   23   92 1    
    49   23   93 1    
    50   24   25 am   BACKBONE|DICT|INTERRES
    51   24   94 1    
    52   25   26 2    
    53   25   27 1    
    54   27   28 1    
    55   27   29 1    
    56   27   95 1    
    57   28   96 1    
    58   28   97 1    
    59   28   98 1    
    60   29   30 am   BACKBONE|DICT|INTERRES
    61   29   99 1    
    62   30   31 2    
    63   30   32 1    
    64   32   33 1    
    65   32   34 1    
    66   32  100 1    
    67   33  101 1    
    68   33  102 1    
    69   33  103 1    
    70   34   35 am   BACKBONE|DICT|INTERRES
    71   34  104 1    
    72   35   36 2    
    73   37   38 2    
    74   37   39 am   BACKBONE|DICT|INTERRES
    75   39   40 1    
    76   39  105 1    
    77   40   41 1    
    78   40   42 1    
    79   40  106 1    
    80   41  107 1    
    81   41  108 1    
    82   41  109 1    
    83   42   43 2    
    84   42   44 am   BACKBONE|DICT|INTERRES
    85   44   45 1    
    86   44  110 1    
    87   45   46 1    
    88   45   47 1    
    89   45  111 1    
    90   46  112 1    
    91   46  113 1    
    92   46  114 1    
    93   47   48 2    
    94   47   49 am   BACKBONE|DICT|INTERRES
    95   49   50 1    
    96   49  115 1    
    97   50   51 1    
    98   50   52 1    
    99   50  116 1    
   100   51  117 1    
   101   51  118 1    
   102   51  119 1    
   103   52   53 2    
   104   52   54 am   BACKBONE|DICT|INTERRES
   105   54   55 1    
   106   54  120 1    
   107   55   56 1    
   108   55   57 1    
   109   55  121 1    
   110   56  122 1    
   111   56  123 1    
   112   56  124 1    
   113   57   58 2    
   114   57   59 am   BACKBONE|DICT|INTERRES
   115   59   60 1    
   116   59  125 1    
   117   60   61 1    
   118   60   62 1    
   119   60  126 1    
   120   61  127 1    
   121   61  128 1    
   122   61  129 1    
   123   62   63 2    
   124   62   64 am   BACKBONE|DICT|INTERRES
   125   64   65 1    
   126   64  130 1    
   127   65   66 1    
   128   65   69 1    
   129   65  131 1    
   130   66   67 am   BACKBONE|DICT|INTERRES
   131   66   68 2    
   132   67  132 1    
   133   67  133 1    
   134   69   70 1    
   135   69  134 1    
   136   69  135 1    
   137   70   71 1    
   138   71  136 1    
   139   71  137 1    
@<TRIPOS>SUBSTRUCTURE
     1 UNK         1 GROUP             0       ****    0 ROOT    
