@<TRIPOS>MOLECULE
3R136
137   139    1
SMALL
USER_CHARGES


@<TRIPOS>ATOM
      1 CA         28.3678   23.0049   -2.4821 C.3       0 UNK        -0.1979 
      2 C          28.3498   23.2569   -0.9833 C.2       0 UNK         0.4864 
      3 O          27.9375   24.3361   -0.5538 O.2       0 UNK        -0.5359 
      4 N          28.7789   22.2676   -0.1850 N.am      1 UNK        -0.4318 
      5 CA         28.9220   22.3404    1.2773 C.3       1 UNK         0.0824 
      6 C6         29.5060   21.0404    1.8886 C.3       12 UNK        -0.0944 
      7 S7         31.0273   20.4553    1.0702 S.3       12 UNK        -0.2672 
      8 C8         32.3235   21.2099    2.1054 C.3       12 UNK         0.0333 
      9 C9         32.4107   22.7166    1.9040 C.ar      12 UNK        -0.0807 
     10 C10        32.2184   23.5927    2.9763 C.ar      12 UNK        -0.0894 
     11 C11        32.3070   24.9780    2.7978 C.ar      12 UNK        -0.0804 
     12 C12        32.5748   25.4809    1.5152 C.ar      12 UNK        -0.0824 
     13 C13        32.7776   24.6137    0.4385 C.ar      12 UNK        -0.0762 
     14 C14        32.6999   23.2350    0.6402 C.ar      12 UNK        -0.0782 
     15 C15        33.0984   25.1517   -0.9455 C.3       12 UNK         0.0230 
     16 S16        31.5918   25.3474   -1.9442 S.3       12 UNK        -0.2608 
     17 C17        31.2260   27.1206   -1.7283 C.3       12 UNK        -0.0989 
     18 CA         29.7145   27.3831   -1.4898 C.3       5 UNK         0.0716 
     19 N          29.2424   26.8429   -0.2050 N.am      5 UNK        -0.4135 
     20 C          29.4705   27.3518    1.0169 C.2       4 UNK         0.5031 
     21 O          30.1890   28.3303    1.2174 O.2       4 UNK        -0.5229 
     22 CA         28.6857   26.7312    2.1926 C.3       4 UNK         0.0329 
     23 CB         28.5589   27.6928    3.3936 C.3       4 UNK        -0.2001 
     24 N          27.3567   26.2421    1.8036 N.am      4 UNK        -0.4303 
     25 C          26.3828   26.9280    1.1795 C.2       3 UNK         0.5044 
     26 O          26.4646   28.1273    0.9083 O.2       3 UNK        -0.5152 
     27 CA         25.1413   26.1447    0.7135 C.3       3 UNK         0.0319 
     28 CB         24.8736   26.3958   -0.7817 C.3       3 UNK        -0.2001 
     29 N          25.3053   24.7042    0.9151 N.am      3 UNK        -0.4354 
     30 C          24.7130   23.9833    1.8763 C.2       2 UNK         0.4964 
     31 O          23.8827   24.4381    2.6635 O.2       2 UNK        -0.5047 
     32 CA         25.1274   22.5040    1.9976 C.3       2 UNK         0.0288 
     33 CB         24.1152   21.6026    1.2719 C.3       2 UNK        -0.2113 
     34 N          26.4742   22.2179    1.4905 N.am      2 UNK        -0.4145 
     35 C          27.6131   22.7081    2.0044 C.2       1 UNK         0.5006 
     36 O          27.6536   23.4563    2.9814 O.2       1 UNK        -0.5103 
     37 C          29.3352   28.8723   -1.7161 C.2       5 UNK         0.5055 
     38 O          30.0123   29.5598   -2.4829 O.2       5 UNK        -0.5220 
     39 N          28.2788   29.3551   -1.0384 N.am      6 UNK        -0.4450 
     40 CA         27.8448   30.7542   -0.9451 C.3       6 UNK         0.0367 
     41 CB         27.3491   31.2771   -2.3102 C.3       6 UNK        -0.1929 
     42 C          28.8855   31.6899   -0.2874 C.2       6 UNK         0.5070 
     43 O          28.8216   32.9025   -0.4927 O.2       6 UNK        -0.5237 
     44 N          29.8069   31.1349    0.5159 N.am      7 UNK        -0.4739 
     45 CA         30.8741   31.8678    1.2081 C.3       7 UNK         0.0276 
     46 CB         32.1165   30.9637    1.3129 C.3       7 UNK        -0.1927 
     47 C          30.4531   32.3868    2.5961 C.2       7 UNK         0.5013 
     48 O          31.3198   32.8023    3.3656 O.2       7 UNK        -0.5193 
     49 N          29.1514   32.3234    2.9206 N.am      8 UNK        -0.4253 
     50 CA         28.5243   32.7825    4.1712 C.3       8 UNK         0.0242 
     51 CB         28.5294   34.3248    4.2353 C.3       8 UNK        -0.2000 
     52 C          29.1253   32.1366    5.4381 C.2       8 UNK         0.4948 
     53 O          29.2068   32.7850    6.4825 O.2       8 UNK        -0.5275 
     54 N          29.5570   30.8739    5.3022 N.am      9 UNK        -0.4246 
     55 CA         30.2365   30.0428    6.3018 C.3       9 UNK         0.0261 
     56 CB         29.3368   29.7919    7.5308 C.3       9 UNK        -0.1959 
     57 C          31.6494   30.5241    6.6946 C.2       9 UNK         0.5033 
     58 O          32.2062   29.9905    7.6561 O.2       9 UNK        -0.5390 
     59 N          32.2548   31.4523    5.9312 N.am      10 UNK        -0.4215 
     60 CA         33.6514   31.8853    6.1137 C.3       10 UNK         0.0240 
     61 CB         33.9412   33.0993    5.2174 C.3       10 UNK        -0.1982 
     62 C          34.6740   30.7622    5.8465 C.2       10 UNK         0.4970 
     63 O          35.7855   30.8068    6.3743 O.2       10 UNK        -0.4916 
     64 N          34.2543   29.7662    5.0600 N.am      11 UNK        -0.4279 
     65 CA         34.8970   28.4633    4.8583 C.3       11 UNK         0.1003 
     66 C          34.9736   27.5565    6.1242 C.2       11 UNK         0.5709 
     67 N          34.2541   27.8389    7.2054 N.am      11 UNK        -0.7358 
     68 O          35.7144   26.5764    6.1257 O.2       11 UNK        -0.4999 
     69 C69        34.2389   27.7207    3.6632 C.3       12 UNK        -0.0954 
     70 S70        32.4137   27.6534    3.7803 S.3       12 UNK        -0.2268 
     71 C71        32.0998   25.8729    4.0230 C.3       12 UNK         0.0203 
     72 H72        27.3601   23.0879   -2.8881 H         1 UNK         0.0888 
     73 H73        28.9967   23.7455   -2.9754 H         1 UNK         0.0888 
     74 H74        28.7542   22.0154   -2.7251 H         1 UNK         0.0888 
     75 H75        29.1179   21.4114   -0.6009 H         1 UNK         0.3017 
     76 H76        29.6242   23.1531    1.4738 H         1 UNK         0.0873 
     77 H77        29.7076   21.1770    2.9531 H         1 UNK         0.0745 
     78 H78        28.7772   20.2298    1.8241 H         1 UNK         0.0745 
     79 H79        32.1457   20.9589    3.1523 H         1 UNK         0.0705 
     80 H80        33.2843   20.7651    1.8429 H         1 UNK         0.0705 
     81 H81        32.0030   23.1950    3.9590 H         1 UNK         0.1334 
     82 H82        32.6319   26.5456    1.3401 H         1 UNK         0.1417 
     83 H83        32.8530   22.5609   -0.1920 H         1 UNK         0.1562 
     84 H84        33.7662   24.4593   -1.4605 H         1 UNK         0.0748 
     85 H85        33.6442   26.0941   -0.8790 H         1 UNK         0.0748 
     86 H86        31.5789   27.6128   -2.6363 H         1 UNK         0.0940 
     87 H87        31.8134   27.5407   -0.9103 H         1 UNK         0.0940 
     88 H88        29.1596   26.8387   -2.2555 H         1 UNK         0.0703 
     89 H89        28.6627   26.0077   -0.2752 H         1 UNK         0.3081 
     90 H90        29.2578   25.8598    2.5137 H         1 UNK         0.0719 
     91 H91        29.5384   27.9913    3.7627 H         1 UNK         0.0809 
     92 H92        28.0211   28.6031    3.1271 H         1 UNK         0.0809 
     93 H93        28.0327   27.2220    4.2238 H         1 UNK         0.0809 
     94 H94        27.1955   25.2600    1.9930 H         1 UNK         0.2990 
     95 H95        24.2893   26.5198    1.2837 H         1 UNK         0.0690 
     96 H96        23.9928   25.8516   -1.1226 H         1 UNK         0.0788 
     97 H97        25.7184   26.0867   -1.3992 H         1 UNK         0.0788 
     98 H98        24.6939   27.4536   -0.9789 H         1 UNK         0.0788 
     99 H99        26.0059   24.2610    0.3305 H         1 UNK         0.2993 
    100 H100       25.1131   22.2520    3.0604 H         1 UNK         0.0949 
    101 H101       23.1042   21.7705    1.6463 H         1 UNK         0.0767 
    102 H102       24.1010   21.7940    0.1981 H         1 UNK         0.0767 
    103 H103       24.3428   20.5471    1.4234 H         1 UNK         0.0767 
    104 H104       26.5372   21.6206    0.6785 H         1 UNK         0.3013 
    105 H105       27.7753   28.7240   -0.4197 H         1 UNK         0.3121 
    106 H106       26.9879   30.7487   -0.2699 H         1 UNK         0.0774 
    107 H107       28.1663   31.3922   -3.0226 H         1 UNK         0.0815 
    108 H108       26.8728   32.2527   -2.2057 H         1 UNK         0.0815 
    109 H109       26.6120   30.6048   -2.7489 H         1 UNK         0.0815 
    110 H110       29.8064   30.1258    0.6532 H         1 UNK         0.2987 
    111 H111       31.1491   32.7422    0.6144 H         1 UNK         0.0949 
    112 H112       31.9489   30.1247    1.9884 H         1 UNK         0.0806 
    113 H113       32.3978   30.5584    0.3408 H         1 UNK         0.0806 
    114 H114       32.9756   31.5178    1.6932 H         1 UNK         0.0806 
    115 H115       28.5261   31.9443    2.2238 H         1 UNK         0.3010 
    116 H116       27.4838   32.4565    4.1325 H         1 UNK         0.0829 
    117 H117       27.9559   34.6850    5.0904 H         1 UNK         0.0813 
    118 H118       29.5411   34.7208    4.3320 H         1 UNK         0.0813 
    119 H119       28.0829   34.7609    3.3417 H         1 UNK         0.0813 
    120 H120       29.4529   30.4530    4.3897 H         1 UNK         0.3038 
    121 H121       30.3905   29.0766    5.8198 H         1 UNK         0.0769 
    122 H122       29.1969   30.6959    8.1239 H         1 UNK         0.0811 
    123 H123       29.7738   29.0399    8.1889 H         1 UNK         0.0811 
    124 H124       28.3532   29.4271    7.2352 H         1 UNK         0.0811 
    125 H125       31.7518   31.8652    5.1507 H         1 UNK         0.3204 
    126 H126       33.7691   32.1937    7.1545 H         1 UNK         0.0748 
    127 H127       34.9420   33.4913    5.4039 H         1 UNK         0.0771 
    128 H128       33.8854   32.8417    4.1590 H         1 UNK         0.0771 
    129 H129       33.2352   33.9091    5.4030 H         1 UNK         0.0771 
    130 H130       33.3250   29.8343    4.6738 H         1 UNK         0.2980 
    131 H131       35.9335   28.6670    4.5842 H         1 UNK         0.0545 
    132 H132       34.3292   27.2380    8.0100 H         1 UNK         0.3459 
    133 H133       33.6304   28.6379    7.2354 H         1 UNK         0.3459 
    134 H134       34.4815   28.2445    2.7375 H         1 UNK         0.0616 
    135 H135       34.6482   26.7157    3.5438 H         1 UNK         0.0616 
    136 H136       31.0682   25.7596    4.3584 H         1 UNK         0.0634 
    137 H137       32.7302   25.5207    4.8410 H         1 UNK         0.0634 
@<TRIPOS>BOND
     1    1    2 1    
     2    1   72 1    
     3    1   73 1    
     4    1   74 1    
     5    2    3 2    
     6    2    4 am   BACKBONE|DICT|INTERRES
     7    4    5 1    
     8    4   75 1    
     9    5    6 1    
    10    5   35 1    
    11    5   76 1    
    12    6    7 1    
    13    6   77 1    
    14    6   78 1    
    15    7    8 1    
    16    8    9 1    
    17    8   79 1    
    18    8   80 1    
    19    9   10 ar   
    20    9   14 ar   
    21   10   11 ar   
    22   10   81 1    
    23   11   12 ar   
    24   11   71 1    
    25   12   13 ar   
    26   12   82 1    
    27   13   14 ar   
    28   13   15 1    
    29   14   83 1    
    30   15   16 1    
    31   15   84 1    
    32   15   85 1    
    33   16   17 1    
    34   17   18 1    
    35   17   86 1    
    36   17   87 1    
    37   18   19 1    
    38   18   37 1    
    39   18   88 1    
    40   19   20 am   BACKBONE|DICT|INTERRES
    41   19   89 1    
    42   20   21 2    
    43   20   22 1    
    44   22   23 1    
    45   22   24 1    
    46   22   90 1    
    47   23   91 1    
    48   23   92 1    
    49   23   93 1    
    50   24   25 am   BACKBONE|DICT|INTERRES
    51   24   94 1    
    52   25   26 2    
    53   25   27 1    
    54   27   28 1    
    55   27   29 1    
    56   27   95 1    
    57   28   96 1    
    58   28   97 1    
    59   28   98 1    
    60   29   30 am   BACKBONE|DICT|INTERRES
    61   29   99 1    
    62   30   31 2    
    63   30   32 1    
    64   32   33 1    
    65   32   34 1    
    66   32  100 1    
    67   33  101 1    
    68   33  102 1    
    69   33  103 1    
    70   34   35 am   BACKBONE|DICT|INTERRES
    71   34  104 1    
    72   35   36 2    
    73   37   38 2    
    74   37   39 am   BACKBONE|DICT|INTERRES
    75   39   40 1    
    76   39  105 1    
    77   40   41 1    
    78   40   42 1    
    79   40  106 1    
    80   41  107 1    
    81   41  108 1    
    82   41  109 1    
    83   42   43 2    
    84   42   44 am   BACKBONE|DICT|INTERRES
    85   44   45 1    
    86   44  110 1    
    87   45   46 1    
    88   45   47 1    
    89   45  111 1    
    90   46  112 1    
    91   46  113 1    
    92   46  114 1    
    93   47   48 2    
    94   47   49 am   BACKBONE|DICT|INTERRES
    95   49   50 1    
    96   49  115 1    
    97   50   51 1    
    98   50   52 1    
    99   50  116 1    
   100   51  117 1    
   101   51  118 1    
   102   51  119 1    
   103   52   53 2    
   104   52   54 am   BACKBONE|DICT|INTERRES
   105   54   55 1    
   106   54  120 1    
   107   55   56 1    
   108   55   57 1    
   109   55  121 1    
   110   56  122 1    
   111   56  123 1    
   112   56  124 1    
   113   57   58 2    
   114   57   59 am   BACKBONE|DICT|INTERRES
   115   59   60 1    
   116   59  125 1    
   117   60   61 1    
   118   60   62 1    
   119   60  126 1    
   120   61  127 1    
   121   61  128 1    
   122   61  129 1    
   123   62   63 2    
   124   62   64 am   BACKBONE|DICT|INTERRES
   125   64   65 1    
   126   64  130 1    
   127   65   66 1    
   128   65   69 1    
   129   65  131 1    
   130   66   67 am   BACKBONE|DICT|INTERRES
   131   66   68 2    
   132   67  132 1    
   133   67  133 1    
   134   69   70 1    
   135   69  134 1    
   136   69  135 1    
   137   70   71 1    
   138   71  136 1    
   139   71  137 1    
@<TRIPOS>SUBSTRUCTURE
     1 UNK         1 GROUP             0       ****    0 ROOT    
