@<TRIPOS>MOLECULE
3R136
137   139    1
SMALL
USER_CHARGES


@<TRIPOS>ATOM
      1 CA         26.7944   22.0810   -1.0179 C.3       0 UNK        -0.1979 
      2 C          27.4374   23.1322   -0.1270 C.2       0 UNK         0.4864 
      3 O          27.3046   24.3273   -0.3992 O.2       0 UNK        -0.5359 
      4 N          28.1212   22.6967    0.9394 N.am      1 UNK        -0.4318 
      5 CA         28.7782   23.5348    1.9477 C.3       1 UNK         0.0824 
      6 C6         29.5160   22.6493    2.9800 C.3       12 UNK        -0.0944 
      7 S7         30.7074   23.5663    4.0080 S.3       12 UNK        -0.2672 
      8 C8         32.2372   23.4396    3.0312 C.3       12 UNK         0.0333 
      9 C9         32.5513   24.7520    2.3314 C.ar      12 UNK        -0.0807 
     10 C10        33.1820   25.7750    3.0445 C.ar      12 UNK        -0.0894 
     11 C11        33.5203   26.9751    2.4161 C.ar      12 UNK        -0.0804 
     12 C12        33.2240   27.1475    1.0618 C.ar      12 UNK        -0.0824 
     13 C13        32.5743   26.1409    0.3395 C.ar      12 UNK        -0.0762 
     14 C14        32.2425   24.9412    0.9794 C.ar      12 UNK        -0.0782 
     15 C15        32.2747   26.3428   -1.1407 C.3       12 UNK         0.0230 
     16 S16        31.1626   27.7569   -1.4348 S.3       12 UNK        -0.2608 
     17 C17        29.5329   27.0767   -0.9735 C.3       12 UNK        -0.0989 
     18 CA         28.4142   27.5981   -1.9127 C.3       5 UNK         0.0716 
     19 N          27.2562   26.7017   -1.9295 N.am      5 UNK        -0.4135 
     20 C          26.2099   26.8155   -2.7622 C.2       4 UNK         0.5031 
     21 O          26.1499   27.6372   -3.6785 O.2       4 UNK        -0.5229 
     22 CA         25.0263   25.8624   -2.5461 C.3       4 UNK         0.0329 
     23 CB         25.2355   24.5622   -3.3392 C.3       4 UNK        -0.2001 
     24 N          24.8456   25.5492   -1.1265 N.am      4 UNK        -0.4303 
     25 C          23.7792   25.8947   -0.3934 C.2       3 UNK         0.5044 
     26 O          22.7999   26.4959   -0.8372 O.2       3 UNK        -0.5152 
     27 CA         23.7987   25.4916    1.0902 C.3       3 UNK         0.0319 
     28 CB         23.3962   24.0168    1.2540 C.3       3 UNK        -0.2001 
     29 N          25.0973   25.7090    1.7274 N.am      3 UNK        -0.4354 
     30 C          25.6279   26.8991    2.0363 C.2       2 UNK         0.4964 
     31 O          25.0484   27.9663    1.8354 O.2       2 UNK        -0.5047 
     32 CA         27.0280   26.9231    2.6909 C.3       2 UNK         0.0288 
     33 CB         26.9196   27.0890    4.2192 C.3       2 UNK        -0.2113 
     34 N          27.9140   25.7983    2.3440 N.am      2 UNK        -0.4145 
     35 C          27.7622   24.4908    2.6072 C.2       1 UNK         0.5006 
     36 O          26.8258   24.0187    3.2558 O.2       1 UNK        -0.5103 
     37 C          27.9953   29.0364   -1.5390 C.2       5 UNK         0.5055 
     38 O          27.1405   29.2199   -0.6694 O.2       5 UNK        -0.5220 
     39 N          28.6199   30.0258   -2.1913 N.am      6 UNK        -0.4450 
     40 CA         28.4053   31.4515   -1.9282 C.3       6 UNK         0.0367 
     41 CB         28.9841   32.2749   -3.0904 C.3       6 UNK        -0.1929 
     42 C          29.0072   31.9141   -0.5890 C.2       6 UNK         0.5070 
     43 O          28.5153   32.8841   -0.0112 O.2       6 UNK        -0.5237 
     44 N          30.0558   31.2238   -0.1245 N.am      7 UNK        -0.4739 
     45 CA         30.6836   31.4472    1.1747 C.3       7 UNK         0.0276 
     46 CB         32.1761   31.0946    1.0741 C.3       7 UNK        -0.1927 
     47 C          30.0073   30.5802    2.2452 C.2       7 UNK         0.5013 
     48 O          29.6210   29.4437    1.9609 O.2       7 UNK        -0.5193 
     49 N          29.9249   31.1155    3.4691 N.am      8 UNK        -0.4253 
     50 CA         29.5341   30.3689    4.6655 C.3       8 UNK         0.0242 
     51 CB         29.1822   31.3612    5.7859 C.3       8 UNK        -0.2000 
     52 C          30.6752   29.4412    5.1102 C.2       8 UNK         0.4948 
     53 O          31.8435   29.7460    4.8556 O.2       8 UNK        -0.5275 
     54 N          30.3291   28.3550    5.8120 N.am      9 UNK        -0.4246 
     55 CA         31.2270   27.2800    6.2583 C.3       9 UNK         0.0261 
     56 CB         30.3678   26.0588    6.6361 C.3       9 UNK        -0.1959 
     57 C          32.2082   27.6765    7.3878 C.2       9 UNK         0.5033 
     58 O          32.4172   26.8983    8.3204 O.2       9 UNK        -0.5390 
     59 N          32.7876   28.8767    7.2908 N.am      10 UNK        -0.4215 
     60 CA         33.7230   29.4663    8.2501 C.3       10 UNK         0.0240 
     61 CB         33.2199   30.8752    8.6115 C.3       10 UNK        -0.1982 
     62 C          35.1643   29.5333    7.7133 C.2       10 UNK         0.4970 
     63 O          36.0603   29.8936    8.4785 O.2       10 UNK        -0.4916 
     64 N          35.3730   29.2220    6.4257 N.am      11 UNK        -0.4279 
     65 CA         36.6874   29.2405    5.7663 C.3       11 UNK         0.1003 
     66 C          37.6675   28.1440    6.2778 C.2       11 UNK         0.5709 
     67 N          38.9631   28.3222    6.0555 N.am      11 UNK        -0.7358 
     68 O          37.2700   27.1303    6.8505 O.2       11 UNK        -0.4999 
     69 C69        36.5519   29.2709    4.2182 C.3       12 UNK        -0.0954 
     70 S70        35.9667   27.7205    3.4488 S.3       12 UNK        -0.2268 
     71 C71        34.2045   28.0809    3.2023 C.3       12 UNK         0.0203 
     72 H72        27.2647   22.0858   -2.0006 H         1 UNK         0.0888 
     73 H73        26.8907   21.0789   -0.6008 H         1 UNK         0.0888 
     74 H74        25.7332   22.2930   -1.1443 H         1 UNK         0.0888 
     75 H75        28.1641   21.7028    1.1126 H         1 UNK         0.3017 
     76 H76        29.5203   24.1318    1.4159 H         1 UNK         0.0873 
     77 H77        30.0486   21.8420    2.4752 H         1 UNK         0.0745 
     78 H78        28.8039   22.1524    3.6421 H         1 UNK         0.0745 
     79 H79        32.1784   22.6230    2.3107 H         1 UNK         0.0705 
     80 H80        33.0570   23.1835    3.7041 H         1 UNK         0.0705 
     81 H81        33.4228   25.6308    4.0889 H         1 UNK         0.1334 
     82 H82        33.4983   28.0668    0.5640 H         1 UNK         0.1417 
     83 H83        31.7624   24.1484    0.4220 H         1 UNK         0.1562 
     84 H84        31.8521   25.4422   -1.5888 H         1 UNK         0.0748 
     85 H85        33.2147   26.5277   -1.6624 H         1 UNK         0.0748 
     86 H86        29.3270   27.3160    0.0717 H         1 UNK         0.0940 
     87 H87        29.5871   25.9882   -1.0294 H         1 UNK         0.0940 
     88 H88        28.7974   27.6067   -2.9358 H         1 UNK         0.0703 
     89 H89        27.2549   25.9506   -1.2446 H         1 UNK         0.3081 
     90 H90        24.1363   26.3564   -2.9414 H         1 UNK         0.0719 
     91 H91        25.2913   24.7662   -4.4093 H         1 UNK         0.0809 
     92 H92        26.1612   24.0608   -3.0575 H         1 UNK         0.0809 
     93 H93        24.4123   23.8647   -3.1843 H         1 UNK         0.0809 
     94 H94        25.6185   25.0718   -0.6707 H         1 UNK         0.2990 
     95 H95        23.0605   26.1049    1.6115 H         1 UNK         0.0690 
     96 H96        23.3224   23.7415    2.3064 H         1 UNK         0.0788 
     97 H97        24.1146   23.3452    0.7824 H         1 UNK         0.0788 
     98 H98        22.4226   23.8251    0.8006 H         1 UNK         0.0788 
     99 H99        25.6165   24.8860    2.0149 H         1 UNK         0.2993 
    100 H100       27.5222   27.8134    2.2980 H         1 UNK         0.0949 
    101 H101       26.3738   27.9984    4.4738 H         1 UNK         0.0767 
    102 H102       26.3937   26.2542    4.6835 H         1 UNK         0.0767 
    103 H103       27.9048   27.1603    4.6770 H         1 UNK         0.0767 
    104 H104       28.7088   26.0613    1.7797 H         1 UNK         0.3013 
    105 H105       29.3159   29.7897   -2.8847 H         1 UNK         0.3121 
    106 H106       27.3290   31.6326   -1.8844 H         1 UNK         0.0774 
    107 H107       28.8139   33.3411   -2.9342 H         1 UNK         0.0815 
    108 H108       30.0602   32.1292   -3.1934 H         1 UNK         0.0815 
    109 H109       28.5151   32.0096   -4.0381 H         1 UNK         0.0815 
    110 H110       30.3463   30.3960   -0.6254 H         1 UNK         0.2987 
    111 H111       30.5929   32.4999    1.4525 H         1 UNK         0.0949 
    112 H112       32.6784   31.2380    2.0320 H         1 UNK         0.0806 
    113 H113       32.6848   31.7214    0.3417 H         1 UNK         0.0806 
    114 H114       32.3197   30.0541    0.7838 H         1 UNK         0.0806 
    115 H115       30.3107   32.0354    3.6234 H         1 UNK         0.3010 
    116 H116       28.6539   29.7656    4.4318 H         1 UNK         0.0829 
    117 H117       30.0383   31.9776    6.0643 H         1 UNK         0.0813 
    118 H118       28.3726   32.0270    5.4862 H         1 UNK         0.0813 
    119 H119       28.8525   30.8384    6.6847 H         1 UNK         0.0813 
    120 H120       29.3541   28.2293    6.0410 H         1 UNK         0.3038 
    121 H121       31.8410   26.9940    5.4030 H         1 UNK         0.0769 
    122 H122       30.9925   25.1928    6.8596 H         1 UNK         0.0811 
    123 H123       29.7049   25.7695    5.8208 H         1 UNK         0.0811 
    124 H124       29.7529   26.2547    7.5154 H         1 UNK         0.0811 
    125 H125       32.5519   29.4304    6.4669 H         1 UNK         0.3204 
    126 H126       33.7512   28.8701    9.1645 H         1 UNK         0.0748 
    127 H127       33.8693   31.3482    9.3496 H         1 UNK         0.0771 
    128 H128       33.1863   31.5283    7.7383 H         1 UNK         0.0771 
    129 H129       32.2183   30.8388    9.0406 H         1 UNK         0.0771 
    130 H130       34.5996   28.8959    5.8694 H         1 UNK         0.2980 
    131 H131       37.1413   30.1926    6.0491 H         1 UNK         0.0545 
    132 H132       39.3037   29.1428    5.5792 H         1 UNK         0.3459 
    133 H133       39.6142   27.6197    6.3699 H         1 UNK         0.3459 
    134 H134       35.8982   30.0919    3.9198 H         1 UNK         0.0616 
    135 H135       37.5204   29.5042    3.7730 H         1 UNK         0.0616 
    136 H136       33.7289   28.1778    4.1765 H         1 UNK         0.0634 
    137 H137       34.0872   29.0402    2.6960 H         1 UNK         0.0634 
@<TRIPOS>BOND
     1    1    2 1    
     2    1   72 1    
     3    1   73 1    
     4    1   74 1    
     5    2    3 2    
     6    2    4 am   BACKBONE|DICT|INTERRES
     7    4    5 1    
     8    4   75 1    
     9    5    6 1    
    10    5   35 1    
    11    5   76 1    
    12    6    7 1    
    13    6   77 1    
    14    6   78 1    
    15    7    8 1    
    16    8    9 1    
    17    8   79 1    
    18    8   80 1    
    19    9   10 ar   
    20    9   14 ar   
    21   10   11 ar   
    22   10   81 1    
    23   11   12 ar   
    24   11   71 1    
    25   12   13 ar   
    26   12   82 1    
    27   13   14 ar   
    28   13   15 1    
    29   14   83 1    
    30   15   16 1    
    31   15   84 1    
    32   15   85 1    
    33   16   17 1    
    34   17   18 1    
    35   17   86 1    
    36   17   87 1    
    37   18   19 1    
    38   18   37 1    
    39   18   88 1    
    40   19   20 am   BACKBONE|DICT|INTERRES
    41   19   89 1    
    42   20   21 2    
    43   20   22 1    
    44   22   23 1    
    45   22   24 1    
    46   22   90 1    
    47   23   91 1    
    48   23   92 1    
    49   23   93 1    
    50   24   25 am   BACKBONE|DICT|INTERRES
    51   24   94 1    
    52   25   26 2    
    53   25   27 1    
    54   27   28 1    
    55   27   29 1    
    56   27   95 1    
    57   28   96 1    
    58   28   97 1    
    59   28   98 1    
    60   29   30 am   BACKBONE|DICT|INTERRES
    61   29   99 1    
    62   30   31 2    
    63   30   32 1    
    64   32   33 1    
    65   32   34 1    
    66   32  100 1    
    67   33  101 1    
    68   33  102 1    
    69   33  103 1    
    70   34   35 am   BACKBONE|DICT|INTERRES
    71   34  104 1    
    72   35   36 2    
    73   37   38 2    
    74   37   39 am   BACKBONE|DICT|INTERRES
    75   39   40 1    
    76   39  105 1    
    77   40   41 1    
    78   40   42 1    
    79   40  106 1    
    80   41  107 1    
    81   41  108 1    
    82   41  109 1    
    83   42   43 2    
    84   42   44 am   BACKBONE|DICT|INTERRES
    85   44   45 1    
    86   44  110 1    
    87   45   46 1    
    88   45   47 1    
    89   45  111 1    
    90   46  112 1    
    91   46  113 1    
    92   46  114 1    
    93   47   48 2    
    94   47   49 am   BACKBONE|DICT|INTERRES
    95   49   50 1    
    96   49  115 1    
    97   50   51 1    
    98   50   52 1    
    99   50  116 1    
   100   51  117 1    
   101   51  118 1    
   102   51  119 1    
   103   52   53 2    
   104   52   54 am   BACKBONE|DICT|INTERRES
   105   54   55 1    
   106   54  120 1    
   107   55   56 1    
   108   55   57 1    
   109   55  121 1    
   110   56  122 1    
   111   56  123 1    
   112   56  124 1    
   113   57   58 2    
   114   57   59 am   BACKBONE|DICT|INTERRES
   115   59   60 1    
   116   59  125 1    
   117   60   61 1    
   118   60   62 1    
   119   60  126 1    
   120   61  127 1    
   121   61  128 1    
   122   61  129 1    
   123   62   63 2    
   124   62   64 am   BACKBONE|DICT|INTERRES
   125   64   65 1    
   126   64  130 1    
   127   65   66 1    
   128   65   69 1    
   129   65  131 1    
   130   66   67 am   BACKBONE|DICT|INTERRES
   131   66   68 2    
   132   67  132 1    
   133   67  133 1    
   134   69   70 1    
   135   69  134 1    
   136   69  135 1    
   137   70   71 1    
   138   71  136 1    
   139   71  137 1    
@<TRIPOS>SUBSTRUCTURE
     1 UNK         1 GROUP             0       ****    0 ROOT    
