@<TRIPOS>MOLECULE
3R136
137   139    1
SMALL
USER_CHARGES


@<TRIPOS>ATOM
      1 CA         29.7258   27.9315   -2.4877 C.3       0 UNK        -0.1979 
      2 C          29.6208   26.4336   -2.2428 C.2       0 UNK         0.4864 
      3 O          29.6235   25.6604   -3.2022 O.2       0 UNK        -0.5359 
      4 N          29.5055   26.0244   -0.9714 N.am      1 UNK        -0.4318 
      5 CA         29.3841   24.6488   -0.4619 C.3       1 UNK         0.0824 
      6 C6         30.5496   23.7009   -0.8492 C.3       12 UNK        -0.0944 
      7 S7         32.1764   24.3305   -0.3206 S.3       12 UNK        -0.2672 
      8 C8         32.5837   23.2033    1.0484 C.3       12 UNK         0.0333 
      9 C9         31.8455   23.5612    2.3306 C.ar      12 UNK        -0.0807 
     10 C10        32.2438   24.6817    3.0663 C.ar      12 UNK        -0.0894 
     11 C11        31.6322   24.9843    4.2849 C.ar      12 UNK        -0.0804 
     12 C12        30.6145   24.1582    4.7665 C.ar      12 UNK        -0.0824 
     13 C13        30.1920   23.0440    4.0340 C.ar      12 UNK        -0.0762 
     14 C14        30.8086   22.7524    2.8118 C.ar      12 UNK        -0.0782 
     15 C15        29.1087   22.1298    4.5968 C.3       12 UNK         0.0230 
     16 S16        27.4552   22.4622    3.9033 S.3       12 UNK        -0.2608 
     17 C17        27.1618   24.1926    4.4068 C.3       12 UNK        -0.0989 
     18 CA         27.1451   25.1208    3.1598 C.3       5 UNK         0.0716 
     19 N          25.9377   24.9572    2.3401 N.am      5 UNK        -0.4135 
     20 C          24.6845   25.2659    2.7041 C.2       4 UNK         0.5031 
     21 O          24.3919   25.7412    3.8034 O.2       4 UNK        -0.5229 
     22 CA         23.5748   25.0159    1.6591 C.3       4 UNK         0.0329 
     23 CB         22.2444   25.7023    2.0350 C.3       4 UNK        -0.2001 
     24 N          23.9450   25.3755    0.2833 N.am      4 UNK        -0.4303 
     25 C          24.4426   26.5411   -0.1549 C.2       3 UNK         0.5044 
     26 O          24.7456   27.4742    0.5880 O.2       3 UNK        -0.5152 
     27 CA         24.6706   26.6647   -1.6763 C.3       3 UNK         0.0319 
     28 CB         25.2287   28.0438   -2.0775 C.3       3 UNK        -0.2001 
     29 N          25.5843   25.6337   -2.1674 N.am      3 UNK        -0.4354 
     30 C          25.2905   24.3385   -2.3494 C.2       2 UNK         0.4964 
     31 O          24.1586   23.8706   -2.2204 O.2       2 UNK        -0.5047 
     32 CA         26.4683   23.4005   -2.6649 C.3       2 UNK         0.0288 
     33 CB         26.6125   23.2029   -4.1819 C.3       2 UNK        -0.2113 
     34 N          27.7407   23.8785   -2.1150 N.am      2 UNK        -0.4145 
     35 C          28.0200   24.0253   -0.8120 C.2       1 UNK         0.5006 
     36 O          27.2346   23.7300    0.0898 O.2       1 UNK        -0.5103 
     37 C          27.5062   26.5958    3.4572 C.2       5 UNK         0.5055 
     38 O          28.2575   26.8599    4.3983 O.2       5 UNK        -0.5220 
     39 N          27.0327   27.5337    2.6218 N.am      6 UNK        -0.4450 
     40 CA         27.5700   28.8937    2.5428 C.3       6 UNK         0.0367 
     41 CB         26.5516   29.8071    1.8421 C.3       6 UNK        -0.1929 
     42 C          28.9033   28.8927    1.7750 C.2       6 UNK         0.5070 
     43 O          29.1658   27.9741    0.9939 O.2       6 UNK        -0.5237 
     44 N          29.7077   29.9369    1.9809 N.am      7 UNK        -0.4739 
     45 CA         30.9936   30.1534    1.3235 C.3       7 UNK         0.0276 
     46 CB         32.0832   29.3112    2.0173 C.3       7 UNK        -0.1927 
     47 C          31.3194   31.6535    1.3469 C.2       7 UNK         0.5013 
     48 O          30.6543   32.4157    2.0542 O.2       7 UNK        -0.5193 
     49 N          32.3387   32.0513    0.5731 N.am      8 UNK        -0.4253 
     50 CA         32.8103   33.4379    0.4474 C.3       8 UNK         0.0242 
     51 CB         33.6870   33.5517   -0.8114 C.3       8 UNK        -0.2000 
     52 C          33.5708   33.9655    1.6817 C.2       8 UNK         0.4948 
     53 O          33.7926   35.1733    1.7804 O.2       8 UNK        -0.5275 
     54 N          33.9581   33.0648    2.5889 N.am      9 UNK        -0.4246 
     55 CA         34.5798   33.3368    3.8800 C.3       9 UNK         0.0261 
     56 CB         36.0964   33.0985    3.7719 C.3       9 UNK        -0.1959 
     57 C          33.9396   32.3955    4.9075 C.2       9 UNK         0.5033 
     58 O          33.2415   31.4545    4.5176 O.2       9 UNK        -0.5390 
     59 N          34.2042   32.6323    6.1987 N.am      10 UNK        -0.4215 
     60 CA         33.6622   31.8814    7.3413 C.3       10 UNK         0.0240 
     61 CB         33.8333   32.7301    8.6161 C.3       10 UNK        -0.1982 
     62 C          34.2398   30.4543    7.4969 C.2       10 UNK         0.4970 
     63 O          34.6575   30.0744    8.5921 O.2       10 UNK        -0.4916 
     64 N          34.2454   29.6920    6.3975 N.am      11 UNK        -0.4279 
     65 CA         34.6900   28.2951    6.2817 C.3       11 UNK         0.1003 
     66 C          36.2091   28.0554    6.5512 C.2       11 UNK         0.5709 
     67 N          37.0563   29.0756    6.4778 N.am      11 UNK        -0.7358 
     68 O          36.6379   26.9315    6.8012 O.2       11 UNK        -0.4999 
     69 C69        33.7430   27.3276    7.0518 C.3       12 UNK        -0.0954 
     70 S70        33.4807   25.7513    6.1755 S.3       12 UNK        -0.2268 
     71 C71        32.0842   26.1885    5.0943 C.3       12 UNK         0.0203 
     72 H72        29.6665   28.5030   -1.5623 H         1 UNK         0.0888 
     73 H73        30.6742   28.1655   -2.9702 H         1 UNK         0.0888 
     74 H74        28.9190   28.2624   -3.1411 H         1 UNK         0.0888 
     75 H75        29.4655   26.7390   -0.2419 H         1 UNK         0.3017 
     76 H76        29.4058   24.7480    0.6244 H         1 UNK         0.0873 
     77 H77        30.5889   23.5465   -1.9285 H         1 UNK         0.0745 
     78 H78        30.3909   22.7117   -0.4157 H         1 UNK         0.0745 
     79 H79        33.6575   23.2594    1.2331 H         1 UNK         0.0705 
     80 H80        32.3856   22.1717    0.7533 H         1 UNK         0.0705 
     81 H81        33.0459   25.3073    2.6986 H         1 UNK         0.1334 
     82 H82        30.1591   24.3819    5.7214 H         1 UNK         0.1417 
     83 H83        30.4979   21.8809    2.2514 H         1 UNK         0.1562 
     84 H84        29.0628   22.2174    5.6836 H         1 UNK         0.0748 
     85 H85        29.3697   21.0904    4.3923 H         1 UNK         0.0748 
     86 H86        27.9232   24.4850    5.1277 H         1 UNK         0.0940 
     87 H87        26.2210   24.2481    4.9551 H         1 UNK         0.0940 
     88 H88        27.9668   24.8004    2.5188 H         1 UNK         0.0703 
     89 H89        26.1030   24.5458    1.4251 H         1 UNK         0.3081 
     90 H90        23.4024   23.9386    1.6576 H         1 UNK         0.0719 
     91 H91        21.4628   25.4785    1.3090 H         1 UNK         0.0809 
     92 H92        22.3535   26.7864    2.0872 H         1 UNK         0.0809 
     93 H93        21.8863   25.3625    3.0076 H         1 UNK         0.0809 
     94 H94        23.7859   24.6601   -0.4203 H         1 UNK         0.2990 
     95 H95        23.7010   26.5384   -2.1627 H         1 UNK         0.0690 
     96 H96        25.3369   28.1292   -3.1589 H         1 UNK         0.0788 
     97 H97        26.2038   28.2330   -1.6261 H         1 UNK         0.0788 
     98 H98        24.5603   28.8441   -1.7567 H         1 UNK         0.0788 
     99 H99        26.5470   25.9120   -2.2833 H         1 UNK         0.2993 
    100 H100       26.2478   22.4338   -2.2069 H         1 UNK         0.0949 
    101 H101       26.8614   24.1364   -4.6887 H         1 UNK         0.0767 
    102 H102       27.3922   22.4771   -4.4143 H         1 UNK         0.0767 
    103 H103       25.6842   22.8307   -4.6178 H         1 UNK         0.0767 
    104 H104       28.4301   24.2341   -2.7739 H         1 UNK         0.3013 
    105 H105       26.3950   27.2636    1.8810 H         1 UNK         0.3121 
    106 H106       27.7420   29.2692    3.5539 H         1 UNK         0.0774 
    107 H107       26.8771   30.8477    1.8663 H         1 UNK         0.0815 
    108 H108       26.4187   29.5342    0.7945 H         1 UNK         0.0815 
    109 H109       25.5758   29.7606    2.3260 H         1 UNK         0.0815 
    110 H110       29.4166   30.7014    2.5790 H         1 UNK         0.2987 
    111 H111       30.9141   29.8512    0.2769 H         1 UNK         0.0949 
    112 H112       32.1423   29.5332    3.0829 H         1 UNK         0.0806 
    113 H113       31.8824   28.2443    1.9145 H         1 UNK         0.0806 
    114 H114       33.0686   29.4931    1.5876 H         1 UNK         0.0806 
    115 H115       32.8311   31.3602    0.0247 H         1 UNK         0.3010 
    116 H116       31.9374   34.0807    0.3131 H         1 UNK         0.0829 
    117 H117       33.1378   33.2601   -1.7069 H         1 UNK         0.0813 
    118 H118       34.0239   34.5784   -0.9622 H         1 UNK         0.0813 
    119 H119       34.5770   32.9248   -0.7419 H         1 UNK         0.0813 
    120 H120       33.6436   32.1090    2.4826 H         1 UNK         0.3038 
    121 H121       34.3830   34.3664    4.1865 H         1 UNK         0.0769 
    122 H122       36.3246   32.0651    3.5071 H         1 UNK         0.0811 
    123 H123       36.5426   33.7423    3.0135 H         1 UNK         0.0811 
    124 H124       36.6011   33.3149    4.7140 H         1 UNK         0.0811 
    125 H125       34.8174   33.4021    6.4269 H         1 UNK         0.3204 
    126 H126       32.5897   31.7575    7.1759 H         1 UNK         0.0748 
    127 H127       33.3752   32.2425    9.4779 H         1 UNK         0.0771 
    128 H128       34.8853   32.8931    8.8539 H         1 UNK         0.0771 
    129 H129       33.3567   33.7051    8.5119 H         1 UNK         0.0771 
    130 H130       33.8797   30.1186    5.5482 H         1 UNK         0.2980 
    131 H131       34.5787   28.0874    5.2171 H         1 UNK         0.0545 
    132 H132       38.0371   28.9146    6.6439 H         1 UNK         0.3459 
    133 H133       36.7228   30.0030    6.2723 H         1 UNK         0.3459 
    134 H134       34.1236   27.1208    8.0535 H         1 UNK         0.0616 
    135 H135       32.7633   27.7835    7.2044 H         1 UNK         0.0616 
    136 H136       32.3779   27.0000    4.4265 H         1 UNK         0.0634 
    137 H137       31.2566   26.5672    5.6966 H         1 UNK         0.0634 
@<TRIPOS>BOND
     1    1    2 1    
     2    1   72 1    
     3    1   73 1    
     4    1   74 1    
     5    2    3 2    
     6    2    4 am   BACKBONE|DICT|INTERRES
     7    4    5 1    
     8    4   75 1    
     9    5    6 1    
    10    5   35 1    
    11    5   76 1    
    12    6    7 1    
    13    6   77 1    
    14    6   78 1    
    15    7    8 1    
    16    8    9 1    
    17    8   79 1    
    18    8   80 1    
    19    9   10 ar   
    20    9   14 ar   
    21   10   11 ar   
    22   10   81 1    
    23   11   12 ar   
    24   11   71 1    
    25   12   13 ar   
    26   12   82 1    
    27   13   14 ar   
    28   13   15 1    
    29   14   83 1    
    30   15   16 1    
    31   15   84 1    
    32   15   85 1    
    33   16   17 1    
    34   17   18 1    
    35   17   86 1    
    36   17   87 1    
    37   18   19 1    
    38   18   37 1    
    39   18   88 1    
    40   19   20 am   BACKBONE|DICT|INTERRES
    41   19   89 1    
    42   20   21 2    
    43   20   22 1    
    44   22   23 1    
    45   22   24 1    
    46   22   90 1    
    47   23   91 1    
    48   23   92 1    
    49   23   93 1    
    50   24   25 am   BACKBONE|DICT|INTERRES
    51   24   94 1    
    52   25   26 2    
    53   25   27 1    
    54   27   28 1    
    55   27   29 1    
    56   27   95 1    
    57   28   96 1    
    58   28   97 1    
    59   28   98 1    
    60   29   30 am   BACKBONE|DICT|INTERRES
    61   29   99 1    
    62   30   31 2    
    63   30   32 1    
    64   32   33 1    
    65   32   34 1    
    66   32  100 1    
    67   33  101 1    
    68   33  102 1    
    69   33  103 1    
    70   34   35 am   BACKBONE|DICT|INTERRES
    71   34  104 1    
    72   35   36 2    
    73   37   38 2    
    74   37   39 am   BACKBONE|DICT|INTERRES
    75   39   40 1    
    76   39  105 1    
    77   40   41 1    
    78   40   42 1    
    79   40  106 1    
    80   41  107 1    
    81   41  108 1    
    82   41  109 1    
    83   42   43 2    
    84   42   44 am   BACKBONE|DICT|INTERRES
    85   44   45 1    
    86   44  110 1    
    87   45   46 1    
    88   45   47 1    
    89   45  111 1    
    90   46  112 1    
    91   46  113 1    
    92   46  114 1    
    93   47   48 2    
    94   47   49 am   BACKBONE|DICT|INTERRES
    95   49   50 1    
    96   49  115 1    
    97   50   51 1    
    98   50   52 1    
    99   50  116 1    
   100   51  117 1    
   101   51  118 1    
   102   51  119 1    
   103   52   53 2    
   104   52   54 am   BACKBONE|DICT|INTERRES
   105   54   55 1    
   106   54  120 1    
   107   55   56 1    
   108   55   57 1    
   109   55  121 1    
   110   56  122 1    
   111   56  123 1    
   112   56  124 1    
   113   57   58 2    
   114   57   59 am   BACKBONE|DICT|INTERRES
   115   59   60 1    
   116   59  125 1    
   117   60   61 1    
   118   60   62 1    
   119   60  126 1    
   120   61  127 1    
   121   61  128 1    
   122   61  129 1    
   123   62   63 2    
   124   62   64 am   BACKBONE|DICT|INTERRES
   125   64   65 1    
   126   64  130 1    
   127   65   66 1    
   128   65   69 1    
   129   65  131 1    
   130   66   67 am   BACKBONE|DICT|INTERRES
   131   66   68 2    
   132   67  132 1    
   133   67  133 1    
   134   69   70 1    
   135   69  134 1    
   136   69  135 1    
   137   70   71 1    
   138   71  136 1    
   139   71  137 1    
@<TRIPOS>SUBSTRUCTURE
     1 UNK         1 GROUP             0       ****    0 ROOT    
