@<TRIPOS>MOLECULE
3R136
137   139    1
SMALL
USER_CHARGES


@<TRIPOS>ATOM
      1 CA         28.5845   19.8132    1.9372 C.3       0 UNK        -0.1979 
      2 C          28.4007   20.2061    0.4785 C.2       0 UNK         0.4864 
      3 O          27.8572   19.4244   -0.3039 O.2       0 UNK        -0.5359 
      4 N          28.8565   21.4085    0.1082 N.am      1 UNK        -0.4318 
      5 CA         28.6842   22.0052   -1.2189 C.3       1 UNK         0.0824 
      6 C6         29.7381   23.1147   -1.4870 C.3       12 UNK        -0.0944 
      7 S7         29.8002   24.4121   -0.2000 S.3       12 UNK        -0.2672 
      8 C8         31.4272   24.0856    0.5502 C.3       12 UNK         0.0333 
      9 C9         31.5158   24.7469    1.9137 C.ar      12 UNK        -0.0807 
     10 C10        31.9895   26.0557    2.0400 C.ar      12 UNK        -0.0894 
     11 C11        31.9851   26.6941    3.2847 C.ar      12 UNK        -0.0804 
     12 C12        31.5298   26.0029    4.4109 C.ar      12 UNK        -0.0824 
     13 C13        31.0332   24.7015    4.2883 C.ar      12 UNK        -0.0762 
     14 C14        31.0546   24.0681    3.0437 C.ar      12 UNK        -0.0782 
     15 C15        30.3470   24.0276    5.4646 C.3       12 UNK         0.0230 
     16 S16        28.5333   24.0485    5.2430 S.3       12 UNK        -0.2608 
     17 C17        28.1838   25.8429    5.1832 C.3       12 UNK        -0.0989 
     18 CA         28.1439   26.4203    3.7343 C.3       5 UNK         0.0716 
     19 N          27.1538   25.7896    2.8567 N.am      5 UNK        -0.4135 
     20 C          25.8267   25.7540    3.0256 C.2       4 UNK         0.5031 
     21 O          25.2368   26.2595    3.9822 O.2       4 UNK        -0.5229 
     22 CA         25.0361   25.0570    1.8999 C.3       4 UNK         0.0329 
     23 CB         23.5176   25.3197    1.9839 C.3       4 UNK        -0.2001 
     24 N          25.5369   25.3781    0.5544 N.am      4 UNK        -0.4303 
     25 C          25.6508   26.6012    0.0070 C.2       3 UNK         0.5044 
     26 O          25.4234   27.6405    0.6247 O.2       3 UNK        -0.5152 
     27 CA         26.1299   26.7128   -1.4551 C.3       3 UNK         0.0319 
     28 CB         27.4854   27.4335   -1.5189 C.3       3 UNK        -0.2001 
     29 N          26.2484   25.4260   -2.1422 N.am      3 UNK        -0.4354 
     30 C          25.2217   24.6741   -2.5647 C.2       2 UNK         0.4964 
     31 O          24.0459   25.0358   -2.5167 O.2       2 UNK        -0.5047 
     32 CA         25.5547   23.2677   -3.1039 C.3       2 UNK         0.0288 
     33 CB         25.4770   23.2503   -4.6396 C.3       2 UNK        -0.2113 
     34 N          26.8615   22.7404   -2.6845 N.am      2 UNK        -0.4145 
     35 C          27.2428   22.5226   -1.4164 C.2       1 UNK         0.5006 
     36 O          26.5270   22.7686   -0.4399 O.2       1 UNK        -0.5103 
     37 C          28.1239   27.9674    3.7144 C.2       5 UNK         0.5055 
     38 O          28.8108   28.5781    4.5341 O.2       5 UNK        -0.5220 
     39 N          27.4024   28.5903    2.7696 N.am      6 UNK        -0.4450 
     40 CA         27.3436   30.0468    2.5950 C.3       6 UNK         0.0367 
     41 CB         25.8749   30.4700    2.4085 C.3       6 UNK        -0.1929 
     42 C          28.2283   30.5365    1.4306 C.2       6 UNK         0.5070 
     43 O          28.0078   31.6425    0.9355 O.2       6 UNK        -0.5237 
     44 N          29.1989   29.7183    0.9932 N.am      7 UNK        -0.4739 
     45 CA         30.0842   30.0048   -0.1439 C.3       7 UNK         0.0276 
     46 CB         30.9119   28.7543   -0.4835 C.3       7 UNK        -0.1927 
     47 C          31.0271   31.2006    0.0816 C.2       7 UNK         0.5013 
     48 O          31.2948   31.9443   -0.8631 O.2       7 UNK        -0.5193 
     49 N          31.5166   31.3547    1.3165 N.am      8 UNK        -0.4253 
     50 CA         32.4373   32.3976    1.7569 C.3       8 UNK         0.0242 
     51 CB         33.8565   32.1300    1.2161 C.3       8 UNK        -0.2000 
     52 C          32.4391   32.4145    3.2881 C.2       8 UNK         0.4948 
     53 O          32.0852   31.4095    3.9089 O.2       8 UNK        -0.5275 
     54 N          32.8582   33.5439    3.8714 N.am      9 UNK        -0.4246 
     55 CA         32.9602   33.7237    5.3228 C.3       9 UNK         0.0261 
     56 CB         33.0579   35.2234    5.6470 C.3       9 UNK        -0.1959 
     57 C          34.1414   32.9618    5.9491 C.2       9 UNK         0.5033 
     58 O          34.0360   32.5358    7.0995 O.2       9 UNK        -0.5390 
     59 N          35.2378   32.8015    5.1918 N.am      10 UNK        -0.4215 
     60 CA         36.4935   32.1820    5.6350 C.3       10 UNK         0.0240 
     61 CB         37.5427   32.3022    4.5174 C.3       10 UNK        -0.1982 
     62 C          36.3524   30.7170    6.0847 C.2       10 UNK         0.4970 
     63 O          37.0147   30.3131    7.0412 O.2       10 UNK        -0.4916 
     64 N          35.4864   29.9648    5.3983 N.am      11 UNK        -0.4279 
     65 CA         35.0977   28.5875    5.7351 C.3       11 UNK         0.1003 
     66 C          33.8803   28.4915    6.7024 C.2       11 UNK         0.5709 
     67 N          33.3295   29.5897    7.2074 N.am      11 UNK        -0.7358 
     68 O          33.4384   27.3926    7.0276 O.2       11 UNK        -0.4999 
     69 C69        34.9549   27.6926    4.4679 C.3       12 UNK        -0.0954 
     70 S70        34.1214   28.4743    3.0425 S.3       12 UNK        -0.2268 
     71 C71        32.3685   28.1618    3.3999 C.3       12 UNK         0.0203 
     72 H72        29.0686   20.6010    2.5144 H         1 UNK         0.0888 
     73 H73        27.6171   19.6059    2.3938 H         1 UNK         0.0888 
     74 H74        29.1962   18.9143    2.0100 H         1 UNK         0.0888 
     75 H75        29.2499   22.0284    0.8005 H         1 UNK         0.3017 
     76 H76        28.8410   21.2169   -1.9588 H         1 UNK         0.0873 
     77 H77        29.5640   23.5965   -2.4508 H         1 UNK         0.0745 
     78 H78        30.7234   22.6552   -1.5786 H         1 UNK         0.0745 
     79 H79        31.5842   23.0105    0.6518 H         1 UNK         0.0705 
     80 H80        32.2140   24.4552   -0.1092 H         1 UNK         0.0705 
     81 H81        32.3297   26.5871    1.1633 H         1 UNK         0.1334 
     82 H82        31.4884   26.5053    5.3678 H         1 UNK         0.1417 
     83 H83        30.6467   23.0715    2.9457 H         1 UNK         0.1562 
     84 H84        30.6078   24.5172    6.4043 H         1 UNK         0.0748 
     85 H85        30.6881   22.9947    5.5475 H         1 UNK         0.0748 
     86 H86        28.9371   26.3506    5.7879 H         1 UNK         0.0940 
     87 H87        27.2364   26.0253    5.6920 H         1 UNK         0.0940 
     88 H88        29.0872   26.1797    3.2521 H         1 UNK         0.0703 
     89 H89        27.5313   25.3409    2.0341 H         1 UNK         0.3081 
     90 H90        25.1942   23.9860    2.0363 H         1 UNK         0.0719 
     91 H91        22.9806   24.7947    1.1938 H         1 UNK         0.0809 
     92 H92        23.2862   26.3820    1.8981 H         1 UNK         0.0809 
     93 H93        23.1120   24.9739    2.9355 H         1 UNK         0.0809 
     94 H94        25.8066   24.5729   -0.0038 H         1 UNK         0.2990 
     95 H95        25.3953   27.3198   -1.9883 H         1 UNK         0.0690 
     96 H96        27.8198   27.5676   -2.5477 H         1 UNK         0.0788 
     97 H97        28.2537   26.8769   -0.9839 H         1 UNK         0.0788 
     98 H98        27.4253   28.4252   -1.0685 H         1 UNK         0.0788 
     99 H99        27.1802   25.0482   -2.2288 H         1 UNK         0.2993 
    100 H100       24.7905   22.5918   -2.7138 H         1 UNK         0.0949 
    101 H101       24.5057   23.6066   -4.9864 H         1 UNK         0.0767 
    102 H102       26.2379   23.8894   -5.0895 H         1 UNK         0.0767 
    103 H103       25.6075   22.2419   -5.0332 H         1 UNK         0.0767 
    104 H104       27.5098   22.5218   -3.4279 H         1 UNK         0.3013 
    105 H105       26.8391   28.0459    2.1240 H         1 UNK         0.3121 
    106 H106       27.7114   30.5477    3.4928 H         1 UNK         0.0774 
    107 H107       25.7759   31.5561    2.4211 H         1 UNK         0.0815 
    108 H108       25.4700   30.1202    1.4588 H         1 UNK         0.0815 
    109 H109       25.2435   30.0799    3.2069 H         1 UNK         0.0815 
    110 H110       29.3149   28.8290    1.4548 H         1 UNK         0.2987 
    111 H111       29.4498   30.2398   -1.0015 H         1 UNK         0.0949 
    112 H112       31.6629   28.5544    0.2794 H         1 UNK         0.0806 
    113 H113       30.2938   27.8645   -0.5881 H         1 UNK         0.0806 
    114 H114       31.4442   28.8900   -1.4258 H         1 UNK         0.0806 
    115 H115       31.2195   30.7324    2.0581 H         1 UNK         0.3010 
    116 H116       32.0757   33.3623    1.3947 H         1 UNK         0.0829 
    117 H117       33.8786   32.1382    0.1265 H         1 UNK         0.0813 
    118 H118       34.5594   32.8922    1.5538 H         1 UNK         0.0813 
    119 H119       34.2371   31.1636    1.5483 H         1 UNK         0.0813 
    120 H120       33.1203   34.3298    3.2927 H         1 UNK         0.3038 
    121 H121       32.0452   33.3388    5.7794 H         1 UNK         0.0769 
    122 H122       33.1101   35.3861    6.7247 H         1 UNK         0.0811 
    123 H123       32.1855   35.7661    5.2824 H         1 UNK         0.0811 
    124 H124       33.9460   35.6779    5.2061 H         1 UNK         0.0811 
    125 H125       35.2275   33.1863    4.2590 H         1 UNK         0.3204 
    126 H126       36.8483   32.7511    6.4970 H         1 UNK         0.0748 
    127 H127       38.4942   31.8669    4.8266 H         1 UNK         0.0771 
    128 H128       37.2281   31.7857    3.6094 H         1 UNK         0.0771 
    129 H129       37.7348   33.3447    4.2624 H         1 UNK         0.0771 
    130 H130       34.9722   30.3817    4.6361 H         1 UNK         0.2980 
    131 H131       35.9127   28.1462    6.3116 H         1 UNK         0.0545 
    132 H132       33.6957   30.5111    7.0011 H         1 UNK         0.3459 
    133 H133       32.5491   29.4954    7.8368 H         1 UNK         0.3459 
    134 H134       34.4785   26.7375    4.6954 H         1 UNK         0.0616 
    135 H135       35.9552   27.4293    4.1219 H         1 UNK         0.0616 
    136 H136       32.1233   28.5576    4.3861 H         1 UNK         0.0634 
    137 H137       31.7650   28.7350    2.6970 H         1 UNK         0.0634 
@<TRIPOS>BOND
     1    1    2 1    
     2    1   72 1    
     3    1   73 1    
     4    1   74 1    
     5    2    3 2    
     6    2    4 am   BACKBONE|DICT|INTERRES
     7    4    5 1    
     8    4   75 1    
     9    5    6 1    
    10    5   35 1    
    11    5   76 1    
    12    6    7 1    
    13    6   77 1    
    14    6   78 1    
    15    7    8 1    
    16    8    9 1    
    17    8   79 1    
    18    8   80 1    
    19    9   10 ar   
    20    9   14 ar   
    21   10   11 ar   
    22   10   81 1    
    23   11   12 ar   
    24   11   71 1    
    25   12   13 ar   
    26   12   82 1    
    27   13   14 ar   
    28   13   15 1    
    29   14   83 1    
    30   15   16 1    
    31   15   84 1    
    32   15   85 1    
    33   16   17 1    
    34   17   18 1    
    35   17   86 1    
    36   17   87 1    
    37   18   19 1    
    38   18   37 1    
    39   18   88 1    
    40   19   20 am   BACKBONE|DICT|INTERRES
    41   19   89 1    
    42   20   21 2    
    43   20   22 1    
    44   22   23 1    
    45   22   24 1    
    46   22   90 1    
    47   23   91 1    
    48   23   92 1    
    49   23   93 1    
    50   24   25 am   BACKBONE|DICT|INTERRES
    51   24   94 1    
    52   25   26 2    
    53   25   27 1    
    54   27   28 1    
    55   27   29 1    
    56   27   95 1    
    57   28   96 1    
    58   28   97 1    
    59   28   98 1    
    60   29   30 am   BACKBONE|DICT|INTERRES
    61   29   99 1    
    62   30   31 2    
    63   30   32 1    
    64   32   33 1    
    65   32   34 1    
    66   32  100 1    
    67   33  101 1    
    68   33  102 1    
    69   33  103 1    
    70   34   35 am   BACKBONE|DICT|INTERRES
    71   34  104 1    
    72   35   36 2    
    73   37   38 2    
    74   37   39 am   BACKBONE|DICT|INTERRES
    75   39   40 1    
    76   39  105 1    
    77   40   41 1    
    78   40   42 1    
    79   40  106 1    
    80   41  107 1    
    81   41  108 1    
    82   41  109 1    
    83   42   43 2    
    84   42   44 am   BACKBONE|DICT|INTERRES
    85   44   45 1    
    86   44  110 1    
    87   45   46 1    
    88   45   47 1    
    89   45  111 1    
    90   46  112 1    
    91   46  113 1    
    92   46  114 1    
    93   47   48 2    
    94   47   49 am   BACKBONE|DICT|INTERRES
    95   49   50 1    
    96   49  115 1    
    97   50   51 1    
    98   50   52 1    
    99   50  116 1    
   100   51  117 1    
   101   51  118 1    
   102   51  119 1    
   103   52   53 2    
   104   52   54 am   BACKBONE|DICT|INTERRES
   105   54   55 1    
   106   54  120 1    
   107   55   56 1    
   108   55   57 1    
   109   55  121 1    
   110   56  122 1    
   111   56  123 1    
   112   56  124 1    
   113   57   58 2    
   114   57   59 am   BACKBONE|DICT|INTERRES
   115   59   60 1    
   116   59  125 1    
   117   60   61 1    
   118   60   62 1    
   119   60  126 1    
   120   61  127 1    
   121   61  128 1    
   122   61  129 1    
   123   62   63 2    
   124   62   64 am   BACKBONE|DICT|INTERRES
   125   64   65 1    
   126   64  130 1    
   127   65   66 1    
   128   65   69 1    
   129   65  131 1    
   130   66   67 am   BACKBONE|DICT|INTERRES
   131   66   68 2    
   132   67  132 1    
   133   67  133 1    
   134   69   70 1    
   135   69  134 1    
   136   69  135 1    
   137   70   71 1    
   138   71  136 1    
   139   71  137 1    
@<TRIPOS>SUBSTRUCTURE
     1 UNK         1 GROUP             0       ****    0 ROOT    
