@<TRIPOS>MOLECULE
3R136
137   139    1
SMALL
USER_CHARGES


@<TRIPOS>ATOM
      1 CA         27.7934   25.5962    6.9103 C.3       0 UNK        -0.1979 
      2 C          27.8104   25.1524    5.4555 C.2       0 UNK         0.4864 
      3 O          27.0171   25.6507    4.6594 O.2       0 UNK        -0.5359 
      4 N          28.7161   24.2293    5.0987 N.am      1 UNK        -0.4318 
      5 CA         28.8725   23.6397    3.7593 C.3       1 UNK         0.0824 
      6 C6         30.0065   22.5834    3.7635 C.3       12 UNK        -0.0944 
      7 S7         29.9275   21.4402    2.3445 S.3       12 UNK        -0.2672 
      8 C8         31.6426   21.4845    1.7297 C.3       12 UNK         0.0333 
      9 C9         32.0403   22.8432    1.1645 C.ar      12 UNK        -0.0807 
     10 C10        33.0557   23.5899    1.7710 C.ar      12 UNK        -0.0894 
     11 C11        33.4709   24.8117    1.2238 C.ar      12 UNK        -0.0804 
     12 C12        32.8384   25.2833    0.0685 C.ar      12 UNK        -0.0824 
     13 C13        31.7971   24.5651   -0.5331 C.ar      12 UNK        -0.0762 
     14 C14        31.4153   23.3377    0.0164 C.ar      12 UNK        -0.0782 
     15 C15        31.0873   25.0810   -1.7847 C.3       12 UNK         0.0230 
     16 S16        30.8036   26.8827   -1.7690 S.3       12 UNK        -0.2608 
     17 C17        29.8063   27.1231   -3.2834 C.3       12 UNK        -0.0989 
     18 CA         28.5254   27.9759   -3.0741 C.3       5 UNK         0.0716 
     19 N          27.6528   27.4342   -2.0250 N.am      5 UNK        -0.4135 
     20 C          26.5408   26.7238   -2.2689 C.2       4 UNK         0.5031 
     21 O          26.0848   26.5395   -3.3988 O.2       4 UNK        -0.5229 
     22 CA         25.8106   26.0668   -1.0809 C.3       4 UNK         0.0329 
     23 CB         26.0658   24.5501   -1.0771 C.3       4 UNK        -0.2001 
     24 N          26.1828   26.6030    0.2264 N.am      4 UNK        -0.4303 
     25 C          25.8032   27.7941    0.7101 C.2       3 UNK         0.5044 
     26 O          25.0605   28.5733    0.1138 O.2       3 UNK        -0.5152 
     27 CA         26.3834   28.2041    2.0769 C.3       3 UNK         0.0319 
     28 CB         25.3663   27.9423    3.1965 C.3       3 UNK        -0.2001 
     29 N          27.6583   27.5507    2.3899 N.am      3 UNK        -0.4354 
     30 C          28.7751   27.7065    1.6603 C.2       2 UNK         0.4964 
     31 O          28.8286   28.4474    0.6781 O.2       2 UNK        -0.5047 
     32 CA         30.0256   26.8924    2.0304 C.3       2 UNK         0.0288 
     33 CB         31.1028   27.8114    2.6159 C.3       2 UNK        -0.2113 
     34 N          29.7794   25.7754    2.9433 N.am      2 UNK        -0.4145 
     35 C          29.0599   24.6861    2.6354 C.2       1 UNK         0.5006 
     36 O          28.5072   24.5218    1.5455 O.2       1 UNK        -0.5103 
     37 C          28.8462   29.4684   -2.8663 C.2       5 UNK         0.5055 
     38 O          28.7341   30.2426   -3.8188 O.2       5 UNK        -0.5220 
     39 N          29.2552   29.8495   -1.6507 N.am      6 UNK        -0.4450 
     40 CA         29.7563   31.1834   -1.3157 C.3       6 UNK         0.0367 
     41 CB         31.0217   31.0211   -0.4557 C.3       6 UNK        -0.1929 
     42 C          28.7276   32.0401   -0.5638 C.2       6 UNK         0.5070 
     43 O          28.9288   33.2516   -0.4746 O.2       6 UNK        -0.5237 
     44 N          27.6742   31.4100   -0.0169 N.am      7 UNK        -0.4739 
     45 CA         26.6642   32.0034    0.8748 C.3       7 UNK         0.0276 
     46 CB         25.8119   33.0539    0.1297 C.3       7 UNK        -0.1927 
     47 C          27.2978   32.5447    2.1757 C.2       7 UNK         0.5013 
     48 O          26.9699   33.6504    2.6114 O.2       7 UNK        -0.5193 
     49 N          28.2245   31.7651    2.7478 N.am      8 UNK        -0.4253 
     50 CA         29.0611   32.1323    3.8893 C.3       8 UNK         0.0242 
     51 CB         30.4033   32.6716    3.3562 C.3       8 UNK        -0.2000 
     52 C          29.2690   30.9201    4.8099 C.2       8 UNK         0.4948 
     53 O          28.7832   29.8269    4.5103 O.2       8 UNK        -0.5275 
     54 N          29.9920   31.1395    5.9171 N.am      9 UNK        -0.4246 
     55 CA         30.4113   30.1050    6.8679 C.3       9 UNK         0.0261 
     56 CB         30.9961   30.7807    8.1193 C.3       9 UNK        -0.1959 
     57 C          31.4362   29.1352    6.2512 C.2       9 UNK         0.5033 
     58 O          32.2019   29.5329    5.3693 O.2       9 UNK        -0.5390 
     59 N          31.4258   27.8852    6.7339 N.am      10 UNK        -0.4215 
     60 CA         32.2360   26.7716    6.2318 C.3       10 UNK         0.0240 
     61 CB         31.8342   25.4849    6.9713 C.3       10 UNK        -0.1982 
     62 C          33.7537   26.9952    6.3504 C.2       10 UNK         0.4970 
     63 O          34.2175   27.6139    7.3107 O.2       10 UNK        -0.4916 
     64 N          34.4885   26.4281    5.3879 N.am      11 UNK        -0.4279 
     65 CA         35.9580   26.4089    5.3234 C.3       11 UNK         0.1003 
     66 C          36.6471   25.4127    6.3034 C.2       11 UNK         0.5709 
     67 N          35.9207   24.5396    6.9919 N.am      11 UNK        -0.7358 
     68 O          37.8663   25.4452    6.4537 O.2       11 UNK        -0.4999 
     69 C69        36.4562   26.2346    3.8603 C.3       12 UNK        -0.0954 
     70 S70        35.7075   24.8109    2.9876 S.3       12 UNK        -0.2268 
     71 C71        34.5637   25.6769    1.8569 C.3       12 UNK         0.0203 
     72 H72        28.4062   24.9538    7.5420 H         1 UNK         0.0888 
     73 H73        28.1628   26.6178    6.9937 H         1 UNK         0.0888 
     74 H74        26.7746   25.5709    7.2961 H         1 UNK         0.0888 
     75 H75        29.3217   23.8461    5.8098 H         1 UNK         0.3017 
     76 H76        27.9320   23.1256    3.5496 H         1 UNK         0.0873 
     77 H77        30.9848   23.0643    3.8168 H         1 UNK         0.0745 
     78 H78        29.9341   21.9639    4.6589 H         1 UNK         0.0745 
     79 H79        32.3154   21.1831    2.5343 H         1 UNK         0.0705 
     80 H80        31.7513   20.7330    0.9466 H         1 UNK         0.0705 
     81 H81        33.5240   23.2058    2.6657 H         1 UNK         0.1334 
     82 H82        33.1503   26.2276   -0.3563 H         1 UNK         0.1417 
     83 H83        30.6230   22.7629   -0.4442 H         1 UNK         0.1562 
     84 H84        30.1217   24.5845   -1.8956 H         1 UNK         0.0748 
     85 H85        31.6809   24.8192   -2.6614 H         1 UNK         0.0748 
     86 H86        29.5185   26.1481   -3.6796 H         1 UNK         0.0940 
     87 H87        30.4434   27.5681   -4.0503 H         1 UNK         0.0940 
     88 H88        27.9886   27.9491   -4.0248 H         1 UNK         0.0703 
     89 H89        27.9640   27.5538   -1.0695 H         1 UNK         0.3081 
     90 H90        24.7408   26.2329   -1.2251 H         1 UNK         0.0719 
     91 H91        25.7598   24.0978   -2.0215 H         1 UNK         0.0809 
     92 H92        25.5042   24.0540   -0.2853 H         1 UNK         0.0809 
     93 H93        27.1226   24.3200   -0.9325 H         1 UNK         0.0809 
     94 H94        26.8064   26.0345    0.7865 H         1 UNK         0.2990 
     95 H95        26.5791   29.2740    2.0518 H         1 UNK         0.0690 
     96 H96        25.7568   28.2512    4.1666 H         1 UNK         0.0788 
     97 H97        25.1014   26.8863    3.2609 H         1 UNK         0.0788 
     98 H98        24.4445   28.4995    3.0243 H         1 UNK         0.0788 
     99 H99        27.6587   26.9181    3.1842 H         1 UNK         0.2993 
    100 H100       30.4098   26.4694    1.1023 H         1 UNK         0.0949 
    101 H101       32.0100   27.2623    2.8561 H         1 UNK         0.0767 
    102 H102       31.3775   28.5942    1.9084 H         1 UNK         0.0767 
    103 H103       30.7515   28.3011    3.5221 H         1 UNK         0.0767 
    104 H104       30.1539   25.8538    3.8757 H         1 UNK         0.3013 
    105 H105       29.2922   29.1662   -0.8962 H         1 UNK         0.3121 
    106 H106       30.0314   31.7228   -2.2246 H         1 UNK         0.0774 
    107 H107       31.4607   31.9908   -0.2170 H         1 UNK         0.0815 
    108 H108       30.8043   30.5211    0.4888 H         1 UNK         0.0815 
    109 H109       31.7829   30.4390   -0.9754 H         1 UNK         0.0815 
    110 H110       27.6196   30.4089   -0.1462 H         1 UNK         0.2987 
    111 H111       25.9833   31.2052    1.1674 H         1 UNK         0.0949 
    112 H112       25.3812   32.6398   -0.7819 H         1 UNK         0.0806 
    113 H113       24.9838   33.3946    0.7525 H         1 UNK         0.0806 
    114 H114       26.3931   33.9349   -0.1432 H         1 UNK         0.0806 
    115 H115       28.3879   30.8362    2.3832 H         1 UNK         0.3010 
    116 H116       28.5659   32.9074    4.4781 H         1 UNK         0.0829 
    117 H117       30.2503   33.5030    2.6674 H         1 UNK         0.0813 
    118 H118       31.0387   33.0381    4.1628 H         1 UNK         0.0813 
    119 H119       30.9619   31.8994    2.8251 H         1 UNK         0.0813 
    120 H120       30.3740   32.0615    6.0670 H         1 UNK         0.3038 
    121 H121       29.5237   29.5377    7.1567 H         1 UNK         0.0769 
    122 H122       31.8826   31.3703    7.8816 H         1 UNK         0.0811 
    123 H123       31.2898   30.0402    8.8646 H         1 UNK         0.0811 
    124 H124       30.2689   31.4416    8.5916 H         1 UNK         0.0811 
    125 H125       30.8090   27.6756    7.5048 H         1 UNK         0.3204 
    126 H126       31.9901   26.6508    5.1763 H         1 UNK         0.0748 
    127 H127       32.3556   24.6168    6.5657 H         1 UNK         0.0771 
    128 H128       32.0733   25.5413    8.0344 H         1 UNK         0.0771 
    129 H129       30.7679   25.2893    6.8809 H         1 UNK         0.0771 
    130 H130       34.0287   25.9021    4.6605 H         1 UNK         0.2980 
    131 H131       36.2985   27.3937    5.6492 H         1 UNK         0.0545 
    132 H132       34.9215   24.5028    6.8812 H         1 UNK         0.3459 
    133 H133       36.3831   23.9073    7.6260 H         1 UNK         0.3459 
    134 H134       36.2449   27.1459    3.2990 H         1 UNK         0.0616 
    135 H135       37.5419   26.1279    3.8262 H         1 UNK         0.0616 
    136 H136       34.0831   26.4910    2.3973 H         1 UNK         0.0634 
    137 H137       35.1616   26.1413    1.0711 H         1 UNK         0.0634 
@<TRIPOS>BOND
     1    1    2 1    
     2    1   72 1    
     3    1   73 1    
     4    1   74 1    
     5    2    3 2    
     6    2    4 am   BACKBONE|DICT|INTERRES
     7    4    5 1    
     8    4   75 1    
     9    5    6 1    
    10    5   35 1    
    11    5   76 1    
    12    6    7 1    
    13    6   77 1    
    14    6   78 1    
    15    7    8 1    
    16    8    9 1    
    17    8   79 1    
    18    8   80 1    
    19    9   10 ar   
    20    9   14 ar   
    21   10   11 ar   
    22   10   81 1    
    23   11   12 ar   
    24   11   71 1    
    25   12   13 ar   
    26   12   82 1    
    27   13   14 ar   
    28   13   15 1    
    29   14   83 1    
    30   15   16 1    
    31   15   84 1    
    32   15   85 1    
    33   16   17 1    
    34   17   18 1    
    35   17   86 1    
    36   17   87 1    
    37   18   19 1    
    38   18   37 1    
    39   18   88 1    
    40   19   20 am   BACKBONE|DICT|INTERRES
    41   19   89 1    
    42   20   21 2    
    43   20   22 1    
    44   22   23 1    
    45   22   24 1    
    46   22   90 1    
    47   23   91 1    
    48   23   92 1    
    49   23   93 1    
    50   24   25 am   BACKBONE|DICT|INTERRES
    51   24   94 1    
    52   25   26 2    
    53   25   27 1    
    54   27   28 1    
    55   27   29 1    
    56   27   95 1    
    57   28   96 1    
    58   28   97 1    
    59   28   98 1    
    60   29   30 am   BACKBONE|DICT|INTERRES
    61   29   99 1    
    62   30   31 2    
    63   30   32 1    
    64   32   33 1    
    65   32   34 1    
    66   32  100 1    
    67   33  101 1    
    68   33  102 1    
    69   33  103 1    
    70   34   35 am   BACKBONE|DICT|INTERRES
    71   34  104 1    
    72   35   36 2    
    73   37   38 2    
    74   37   39 am   BACKBONE|DICT|INTERRES
    75   39   40 1    
    76   39  105 1    
    77   40   41 1    
    78   40   42 1    
    79   40  106 1    
    80   41  107 1    
    81   41  108 1    
    82   41  109 1    
    83   42   43 2    
    84   42   44 am   BACKBONE|DICT|INTERRES
    85   44   45 1    
    86   44  110 1    
    87   45   46 1    
    88   45   47 1    
    89   45  111 1    
    90   46  112 1    
    91   46  113 1    
    92   46  114 1    
    93   47   48 2    
    94   47   49 am   BACKBONE|DICT|INTERRES
    95   49   50 1    
    96   49  115 1    
    97   50   51 1    
    98   50   52 1    
    99   50  116 1    
   100   51  117 1    
   101   51  118 1    
   102   51  119 1    
   103   52   53 2    
   104   52   54 am   BACKBONE|DICT|INTERRES
   105   54   55 1    
   106   54  120 1    
   107   55   56 1    
   108   55   57 1    
   109   55  121 1    
   110   56  122 1    
   111   56  123 1    
   112   56  124 1    
   113   57   58 2    
   114   57   59 am   BACKBONE|DICT|INTERRES
   115   59   60 1    
   116   59  125 1    
   117   60   61 1    
   118   60   62 1    
   119   60  126 1    
   120   61  127 1    
   121   61  128 1    
   122   61  129 1    
   123   62   63 2    
   124   62   64 am   BACKBONE|DICT|INTERRES
   125   64   65 1    
   126   64  130 1    
   127   65   66 1    
   128   65   69 1    
   129   65  131 1    
   130   66   67 am   BACKBONE|DICT|INTERRES
   131   66   68 2    
   132   67  132 1    
   133   67  133 1    
   134   69   70 1    
   135   69  134 1    
   136   69  135 1    
   137   70   71 1    
   138   71  136 1    
   139   71  137 1    
@<TRIPOS>SUBSTRUCTURE
     1 UNK         1 GROUP             0       ****    0 ROOT    
