@<TRIPOS>MOLECULE
3R136
137   139    1
SMALL
USER_CHARGES


@<TRIPOS>ATOM
      1 CA         27.2446   20.5726   -0.5299 C.3       0 UNK        -0.1979 
      2 C          27.2318   21.9825    0.0389 C.2       0 UNK         0.4864 
      3 O          26.7506   22.9052   -0.6237 O.2       0 UNK        -0.5359 
      4 N          27.7535   22.1684    1.2598 N.am      1 UNK        -0.4318 
      5 CA         27.7642   23.4639    1.9442 C.3       1 UNK         0.0824 
      6 C6         28.7130   23.4899    3.1703 C.3       12 UNK        -0.0944 
      7 S7         29.5677   25.0968    3.2955 S.3       12 UNK        -0.2672 
      8 C8         31.0391   24.7236    2.2950 C.3       12 UNK         0.0333 
      9 C9         31.8031   25.9794    1.9088 C.ar      12 UNK        -0.0807 
     10 C10        32.8129   26.4714    2.7384 C.ar      12 UNK        -0.0894 
     11 C11        33.5724   27.5848    2.3571 C.ar      12 UNK        -0.0804 
     12 C12        33.2848   28.2169    1.1421 C.ar      12 UNK        -0.0824 
     13 C13        32.2764   27.7361    0.2990 C.ar      12 UNK        -0.0762 
     14 C14        31.5362   26.6169    0.6943 C.ar      12 UNK        -0.0782 
     15 C15        32.0508   28.3873   -1.0632 C.3       12 UNK         0.0230 
     16 S16        30.4015   29.1420   -1.2471 S.3       12 UNK        -0.2608 
     17 C17        29.4667   27.8002   -2.0677 C.3       12 UNK        -0.0989 
     18 CA         27.9675   27.6944   -1.6752 C.3       5 UNK         0.0716 
     19 N          27.3623   26.4662   -2.1781 N.am      5 UNK        -0.4135 
     20 C          27.0347   26.2031   -3.4464 C.2       4 UNK         0.5031 
     21 O          27.2075   26.9894   -4.3784 O.2       4 UNK        -0.5229 
     22 CA         26.4084   24.8266   -3.7231 C.3       4 UNK         0.0329 
     23 CB         27.5059   23.7734   -3.9474 C.3       4 UNK        -0.2001 
     24 N          25.5308   24.3836   -2.6368 N.am      4 UNK        -0.4303 
     25 C          24.2586   24.7757   -2.4813 C.2       3 UNK         0.5044 
     26 O          23.6823   25.5524   -3.2434 O.2       3 UNK        -0.5152 
     27 CA         23.5089   24.2259   -1.2605 C.3       3 UNK         0.0319 
     28 CB         23.3349   22.6988   -1.3421 C.3       3 UNK        -0.2001 
     29 N          24.2249   24.5845   -0.0356 N.am      3 UNK        -0.4354 
     30 C          23.7653   25.4265    0.9025 C.2       2 UNK         0.4964 
     31 O          22.6404   25.9276    0.8706 O.2       2 UNK        -0.5047 
     32 CA         24.7140   25.8296    2.0500 C.3       2 UNK         0.0288 
     33 CB         24.0502   25.7215    3.4392 C.3       2 UNK        -0.2113 
     34 N          26.0245   25.1713    2.0066 N.am      2 UNK        -0.4145 
     35 C          26.3300   23.9023    2.3010 C.2       1 UNK         0.5006 
     36 O          25.5447   23.0839    2.7858 O.2       1 UNK        -0.5103 
     37 C          27.7154   27.6877   -0.1597 C.2       5 UNK         0.5055 
     38 O          27.7701   26.6182    0.4516 O.2       5 UNK        -0.5220 
     39 N          27.4207   28.8611    0.4101 N.am      6 UNK        -0.4450 
     40 CA         27.0783   29.0433    1.8239 C.3       6 UNK         0.0367 
     41 CB         25.7050   29.7356    1.9079 C.3       6 UNK        -0.1929 
     42 C          28.1350   29.8518    2.5953 C.2       6 UNK         0.5070 
     43 O          27.9139   30.1494    3.7694 O.2       6 UNK        -0.5237 
     44 N          29.2595   30.2066    1.9572 N.am      7 UNK        -0.4739 
     45 CA         30.3094   31.0786    2.5026 C.3       7 UNK         0.0276 
     46 CB         31.1105   31.6865    1.3359 C.3       7 UNK        -0.1927 
     47 C          31.2282   30.3971    3.5395 C.2       7 UNK         0.5013 
     48 O          32.4252   30.6840    3.5675 O.2       7 UNK        -0.5193 
     49 N          30.6617   29.5347    4.3955 N.am      8 UNK        -0.4253 
     50 CA         31.3523   28.7225    5.4052 C.3       8 UNK         0.0242 
     51 CB         30.3215   27.8902    6.1822 C.3       8 UNK        -0.2000 
     52 C          32.2396   29.5228    6.3723 C.2       8 UNK         0.4948 
     53 O          33.2937   29.0307    6.7742 O.2       8 UNK        -0.5275 
     54 N          31.8416   30.7663    6.6745 N.am      9 UNK        -0.4246 
     55 CA         32.6016   31.7286    7.4777 C.3       9 UNK         0.0261 
     56 CB         31.7597   33.0020    7.6608 C.3       9 UNK        -0.1959 
     57 C          33.9929   32.0812    6.9117 C.2       9 UNK         0.5033 
     58 O          34.8421   32.5432    7.6752 O.2       9 UNK        -0.5390 
     59 N          34.2177   31.8537    5.6085 N.am      10 UNK        -0.4215 
     60 CA         35.5066   32.0579    4.9475 C.3       10 UNK         0.0240 
     61 CB         35.2789   32.2222    3.4346 C.3       10 UNK        -0.1982 
     62 C          36.5300   30.9377    5.2157 C.2       10 UNK         0.4970 
     63 O          37.6986   31.1351    4.8781 O.2       10 UNK        -0.4916 
     64 N          36.1093   29.7940    5.7790 N.am      11 UNK        -0.4279 
     65 CA         36.9796   28.6235    5.9821 C.3       11 UNK         0.1003 
     66 C          36.6980   27.7922    7.2643 C.2       11 UNK         0.5709 
     67 N          35.5613   27.9358    7.9320 N.am      11 UNK        -0.7358 
     68 O          37.5538   27.0173    7.6862 O.2       11 UNK        -0.4999 
     69 C69        37.1017   27.7556    4.6986 C.3       12 UNK        -0.0954 
     70 S70        35.5771   26.8719    4.2155 S.3       12 UNK        -0.2268 
     71 C71        34.7004   28.1353    3.2312 C.3       12 UNK         0.0203 
     72 H72        26.2250   20.2338   -0.7107 H         1 UNK         0.0888 
     73 H73        27.7245   19.8649    0.1457 H         1 UNK         0.0888 
     74 H74        27.7825   20.5574   -1.4773 H         1 UNK         0.0888 
     75 H75        28.1007   21.3790    1.7851 H         1 UNK         0.3017 
     76 H76        28.1528   24.1640    1.2014 H         1 UNK         0.0873 
     77 H77        29.4702   22.7077    3.0941 H         1 UNK         0.0745 
     78 H78        28.1834   23.2893    4.1041 H         1 UNK         0.0745 
     79 H79        31.6881   24.0448    2.8507 H         1 UNK         0.0705 
     80 H80        30.7388   24.1877    1.3929 H         1 UNK         0.0705 
     81 H81        33.0109   25.9726    3.6767 H         1 UNK         0.1334 
     82 H82        33.8648   29.0795    0.8435 H         1 UNK         0.1417 
     83 H83        30.7606   26.2228    0.0553 H         1 UNK         0.1562 
     84 H84        32.2183   27.6519   -1.8513 H         1 UNK         0.0748 
     85 H85        32.7913   29.1708   -1.2309 H         1 UNK         0.0748 
     86 H86        29.9618   26.8467   -1.8861 H         1 UNK         0.0940 
     87 H87        29.5460   27.9600   -3.1442 H         1 UNK         0.0940 
     88 H88        27.4280   28.5412   -2.1051 H         1 UNK         0.0703 
     89 H89        27.1870   25.7735   -1.4613 H         1 UNK         0.3081 
     90 H90        25.8222   24.9045   -4.6416 H         1 UNK         0.0719 
     91 H91        28.1247   23.6371   -3.0594 H         1 UNK         0.0809 
     92 H92        27.0774   22.8052   -4.2068 H         1 UNK         0.0809 
     93 H93        28.1664   24.0653   -4.7651 H         1 UNK         0.0809 
     94 H94        25.9407   23.7490   -1.9509 H         1 UNK         0.2990 
     95 H95        22.5111   24.6695   -1.2669 H         1 UNK         0.0690 
     96 H96        22.7481   22.3265   -0.5023 H         1 UNK         0.0788 
     97 H97        24.2881   22.1707   -1.3390 H         1 UNK         0.0788 
     98 H98        22.8090   22.4159   -2.2549 H         1 UNK         0.0788 
     99 H99        25.1597   24.2064    0.0598 H         1 UNK         0.2993 
    100 H100       24.9229   26.8848    1.8815 H         1 UNK         0.0949 
    101 H101       23.1818   26.3779    3.5070 H         1 UNK         0.0767 
    102 H102       23.7031   24.7096    3.6491 H         1 UNK         0.0767 
    103 H103       24.7385   26.0143    4.2321 H         1 UNK         0.0767 
    104 H104       26.7597   25.7287    1.5673 H         1 UNK         0.3013 
    105 H105       27.4148   29.6944   -0.1628 H         1 UNK         0.3121 
    106 H106       27.0062   28.0782    2.3287 H         1 UNK         0.0774 
    107 H107       24.9459   29.1960    1.3422 H         1 UNK         0.0815 
    108 H108       25.7438   30.7544    1.5205 H         1 UNK         0.0815 
    109 H109       25.3574   29.7933    2.9404 H         1 UNK         0.0815 
    110 H110       29.4107   29.8590    1.0198 H         1 UNK         0.2987 
    111 H111       29.8207   31.9036    3.0255 H         1 UNK         0.0949 
    112 H112       31.6982   30.9291    0.8167 H         1 UNK         0.0806 
    113 H113       30.4573   32.1661    0.6069 H         1 UNK         0.0806 
    114 H114       31.8071   32.4467    1.6923 H         1 UNK         0.0806 
    115 H115       29.6547   29.4277    4.3285 H         1 UNK         0.3010 
    116 H116       32.0081   28.0360    4.8703 H         1 UNK         0.0829 
    117 H117       29.7575   27.2368    5.5165 H         1 UNK         0.0813 
    118 H118       30.8107   27.2528    6.9203 H         1 UNK         0.0813 
    119 H119       29.6097   28.5224    6.7144 H         1 UNK         0.0813 
    120 H120       30.9676   31.0890    6.2854 H         1 UNK         0.3038 
    121 H121       32.7612   31.2780    8.4595 H         1 UNK         0.0769 
    122 H122       31.5447   33.4840    6.7062 H         1 UNK         0.0811 
    123 H123       32.2828   33.7302    8.2826 H         1 UNK         0.0811 
    124 H124       30.8105   32.7850    8.1510 H         1 UNK         0.0811 
    125 H125       33.4762   31.4612    5.0326 H         1 UNK         0.3204 
    126 H126       35.9402   32.9877    5.3220 H         1 UNK         0.0748 
    127 H127       34.5525   33.0070    3.2229 H         1 UNK         0.0771 
    128 H128       36.2057   32.4937    2.9276 H         1 UNK         0.0771 
    129 H129       34.9189   31.3004    2.9769 H         1 UNK         0.0771 
    130 H130       35.1404   29.6867    6.0548 H         1 UNK         0.2980 
    131 H131       37.9810   29.0129    6.1760 H         1 UNK         0.0545 
    132 H132       35.4245   27.3939    8.7696 H         1 UNK         0.3459 
    133 H133       34.7801   28.4652    7.5512 H         1 UNK         0.3459 
    134 H134       37.4387   28.3679    3.8611 H         1 UNK         0.0616 
    135 H135       37.8833   27.0065    4.8358 H         1 UNK         0.0616 
    136 H136       34.2833   28.8775    3.9098 H         1 UNK         0.0634 
    137 H137       35.4277   28.6551    2.6061 H         1 UNK         0.0634 
@<TRIPOS>BOND
     1    1    2 1    
     2    1   72 1    
     3    1   73 1    
     4    1   74 1    
     5    2    3 2    
     6    2    4 am   BACKBONE|DICT|INTERRES
     7    4    5 1    
     8    4   75 1    
     9    5    6 1    
    10    5   35 1    
    11    5   76 1    
    12    6    7 1    
    13    6   77 1    
    14    6   78 1    
    15    7    8 1    
    16    8    9 1    
    17    8   79 1    
    18    8   80 1    
    19    9   10 ar   
    20    9   14 ar   
    21   10   11 ar   
    22   10   81 1    
    23   11   12 ar   
    24   11   71 1    
    25   12   13 ar   
    26   12   82 1    
    27   13   14 ar   
    28   13   15 1    
    29   14   83 1    
    30   15   16 1    
    31   15   84 1    
    32   15   85 1    
    33   16   17 1    
    34   17   18 1    
    35   17   86 1    
    36   17   87 1    
    37   18   19 1    
    38   18   37 1    
    39   18   88 1    
    40   19   20 am   BACKBONE|DICT|INTERRES
    41   19   89 1    
    42   20   21 2    
    43   20   22 1    
    44   22   23 1    
    45   22   24 1    
    46   22   90 1    
    47   23   91 1    
    48   23   92 1    
    49   23   93 1    
    50   24   25 am   BACKBONE|DICT|INTERRES
    51   24   94 1    
    52   25   26 2    
    53   25   27 1    
    54   27   28 1    
    55   27   29 1    
    56   27   95 1    
    57   28   96 1    
    58   28   97 1    
    59   28   98 1    
    60   29   30 am   BACKBONE|DICT|INTERRES
    61   29   99 1    
    62   30   31 2    
    63   30   32 1    
    64   32   33 1    
    65   32   34 1    
    66   32  100 1    
    67   33  101 1    
    68   33  102 1    
    69   33  103 1    
    70   34   35 am   BACKBONE|DICT|INTERRES
    71   34  104 1    
    72   35   36 2    
    73   37   38 2    
    74   37   39 am   BACKBONE|DICT|INTERRES
    75   39   40 1    
    76   39  105 1    
    77   40   41 1    
    78   40   42 1    
    79   40  106 1    
    80   41  107 1    
    81   41  108 1    
    82   41  109 1    
    83   42   43 2    
    84   42   44 am   BACKBONE|DICT|INTERRES
    85   44   45 1    
    86   44  110 1    
    87   45   46 1    
    88   45   47 1    
    89   45  111 1    
    90   46  112 1    
    91   46  113 1    
    92   46  114 1    
    93   47   48 2    
    94   47   49 am   BACKBONE|DICT|INTERRES
    95   49   50 1    
    96   49  115 1    
    97   50   51 1    
    98   50   52 1    
    99   50  116 1    
   100   51  117 1    
   101   51  118 1    
   102   51  119 1    
   103   52   53 2    
   104   52   54 am   BACKBONE|DICT|INTERRES
   105   54   55 1    
   106   54  120 1    
   107   55   56 1    
   108   55   57 1    
   109   55  121 1    
   110   56  122 1    
   111   56  123 1    
   112   56  124 1    
   113   57   58 2    
   114   57   59 am   BACKBONE|DICT|INTERRES
   115   59   60 1    
   116   59  125 1    
   117   60   61 1    
   118   60   62 1    
   119   60  126 1    
   120   61  127 1    
   121   61  128 1    
   122   61  129 1    
   123   62   63 2    
   124   62   64 am   BACKBONE|DICT|INTERRES
   125   64   65 1    
   126   64  130 1    
   127   65   66 1    
   128   65   69 1    
   129   65  131 1    
   130   66   67 am   BACKBONE|DICT|INTERRES
   131   66   68 2    
   132   67  132 1    
   133   67  133 1    
   134   69   70 1    
   135   69  134 1    
   136   69  135 1    
   137   70   71 1    
   138   71  136 1    
   139   71  137 1    
@<TRIPOS>SUBSTRUCTURE
     1 UNK         1 GROUP             0       ****    0 ROOT    
