@<TRIPOS>MOLECULE
3R136
137   139    1
SMALL
USER_CHARGES


@<TRIPOS>ATOM
      1 CA         34.8097   20.7637    3.0094 C.3       0 UNK        -0.1979 
      2 C          33.7438   21.7910    2.6572 C.2       0 UNK         0.4864 
      3 O          34.0314   22.7399    1.9271 O.2       0 UNK        -0.5359 
      4 N          32.5246   21.6113    3.1804 N.am      1 UNK        -0.4318 
      5 CA         31.3567   22.4604    2.9214 C.3       1 UNK         0.0824 
      6 C6         30.2476   22.2271    3.9805 C.3       12 UNK        -0.0944 
      7 S7         30.7618   22.7906    5.6386 S.3       12 UNK        -0.2672 
      8 C8         29.3898   23.9075    6.1083 C.3       12 UNK         0.0333 
      9 C9         29.1608   25.1058    5.1833 C.ar      12 UNK        -0.0807 
     10 C10        30.1820   25.6384    4.3859 C.ar      12 UNK        -0.0894 
     11 C11        29.9328   26.7231    3.5433 C.ar      12 UNK        -0.0804 
     12 C12        28.6684   27.3069    3.5288 C.ar      12 UNK        -0.0824 
     13 C13        27.6391   26.8019    4.3236 C.ar      12 UNK        -0.0762 
     14 C14        27.8914   25.6979    5.1457 C.ar      12 UNK        -0.0782 
     15 C15        26.2694   27.4668    4.3020 C.3       12 UNK         0.0230 
     16 S16        25.4678   27.3237    2.6676 S.3       12 UNK        -0.2608 
     17 C17        25.1500   29.0744    2.2483 C.3       12 UNK        -0.0989 
     18 CA         26.2875   29.7061    1.4021 C.3       5 UNK         0.0716 
     19 N          26.4749   29.0048    0.1258 N.am      5 UNK        -0.4135 
     20 C          27.5760   29.0006   -0.6346 C.2       4 UNK         0.5031 
     21 O          28.5803   29.6645   -0.3685 O.2       4 UNK        -0.5229 
     22 CA         27.5344   28.1378   -1.9135 C.3       4 UNK         0.0329 
     23 CB         28.8518   28.2010   -2.7088 C.3       4 UNK        -0.2001 
     24 N          27.2191   26.7318   -1.6463 N.am      4 UNK        -0.4303 
     25 C          26.0157   26.2359   -1.3262 C.2       3 UNK         0.5044 
     26 O          25.0098   26.9374   -1.2033 O.2       3 UNK        -0.5152 
     27 CA         25.8955   24.7112   -1.1253 C.3       3 UNK         0.0319 
     28 CB         25.0084   24.0929   -2.2193 C.3       3 UNK        -0.2001 
     29 N          27.1808   24.0019   -1.1037 N.am      3 UNK        -0.4354 
     30 C          28.0404   24.0186   -0.0772 C.2       2 UNK         0.4964 
     31 O          27.8417   24.6386    0.9689 O.2       2 UNK        -0.5047 
     32 CA         29.3362   23.2158   -0.2593 C.3       2 UNK         0.0288 
     33 CB         30.2156   23.7881   -1.3882 C.3       2 UNK        -0.2113 
     34 N          30.0762   23.2422    0.9981 N.am      2 UNK        -0.4145 
     35 C          30.7968   22.2359    1.5023 C.2       1 UNK         0.5006 
     36 O          30.9783   21.1611    0.9220 O.2       1 UNK        -0.5103 
     37 C          26.1423   31.2385    1.2453 C.2       5 UNK         0.5055 
     38 O          25.2397   31.8389    1.8320 O.2       5 UNK        -0.5220 
     39 N          27.0600   31.8556    0.4902 N.am      6 UNK        -0.4450 
     40 CA         27.2995   33.3013    0.4763 C.3       6 UNK         0.0367 
     41 CB         28.0598   33.6781   -0.8051 C.3       6 UNK        -0.1929 
     42 C          28.0852   33.7441    1.7254 C.2       6 UNK         0.5070 
     43 O          27.9114   34.8698    2.1921 O.2       6 UNK        -0.5237 
     44 N          28.9090   32.8339    2.2549 N.am      7 UNK        -0.4739 
     45 CA         29.6052   32.9113    3.5315 C.3       7 UNK         0.0276 
     46 CB         31.0013   33.5253    3.3298 C.3       7 UNK        -0.1927 
     47 C          29.7025   31.4778    4.0673 C.2       7 UNK         0.5013 
     48 O          29.6753   30.5343    3.2724 O.2       7 UNK        -0.5193 
     49 N          29.8145   31.3318    5.3912 N.am      8 UNK        -0.4253 
     50 CA         29.9999   30.0387    6.0513 C.3       8 UNK         0.0242 
     51 CB         29.5163   30.1414    7.5067 C.3       8 UNK        -0.2000 
     52 C          31.4743   29.6099    6.0070 C.2       8 UNK         0.4948 
     53 O          32.3603   30.4679    6.0403 O.2       8 UNK        -0.5275 
     54 N          31.7049   28.2905    5.9655 N.am      9 UNK        -0.4246 
     55 CA         32.9870   27.5676    6.0241 C.3       9 UNK         0.0261 
     56 CB         33.6902   27.7999    7.3752 C.3       9 UNK        -0.1959 
     57 C          33.9632   27.8144    4.8566 C.2       9 UNK         0.5033 
     58 O          34.5547   26.8525    4.3662 O.2       9 UNK        -0.5390 
     59 N          34.1124   29.0728    4.4237 N.am      10 UNK        -0.4215 
     60 CA         35.0675   29.5464    3.4130 C.3       10 UNK         0.0240 
     61 CB         34.9075   31.0669    3.2498 C.3       10 UNK        -0.1982 
     62 C          34.9691   28.8486    2.0439 C.2       10 UNK         0.4970 
     63 O          35.9912   28.6765    1.3791 O.2       10 UNK        -0.4916 
     64 N          33.7497   28.4586    1.6583 N.am      11 UNK        -0.4279 
     65 CA         33.4500   27.6722    0.4538 C.3       11 UNK         0.1003 
     66 C          33.8816   26.1749    0.5060 C.2       11 UNK         0.5709 
     67 N          34.2716   25.6277    1.6517 N.am      11 UNK        -0.7358 
     68 O          33.8551   25.4995   -0.5199 O.2       11 UNK        -0.4999 
     69 C69        31.9676   27.8558    0.0174 C.3       12 UNK        -0.0954 
     70 S70        30.7082   26.8693    0.9068 S.3       12 UNK        -0.2268 
     71 C71        31.0214   27.2796    2.6473 C.3       12 UNK         0.0203 
     72 H72        35.6494   21.2499    3.5050 H         1 UNK         0.0888 
     73 H73        34.4265   19.9888    3.6732 H         1 UNK         0.0888 
     74 H74        35.1794   20.2828    2.1042 H         1 UNK         0.0888 
     75 H75        32.3513   20.8063    3.7644 H         1 UNK         0.3017 
     76 H76        31.6872   23.4996    2.9725 H         1 UNK         0.0873 
     77 H77        29.9837   21.1694    4.0383 H         1 UNK         0.0745 
     78 H78        29.3284   22.7470    3.7028 H         1 UNK         0.0745 
     79 H79        28.4780   23.3111    6.1706 H         1 UNK         0.0705 
     80 H80        29.5820   24.2823    7.1142 H         1 UNK         0.0705 
     81 H81        31.1735   25.2108    4.4130 H         1 UNK         0.1334 
     82 H82        28.4920   28.1506    2.8811 H         1 UNK         0.1417 
     83 H83        27.0975   25.3006    5.7638 H         1 UNK         0.1562 
     84 H84        26.3909   28.5132    4.5845 H         1 UNK         0.0748 
     85 H85        25.6115   27.0241    5.0512 H         1 UNK         0.0748 
     86 H86        24.9874   29.6320    3.1726 H         1 UNK         0.0940 
     87 H87        24.2054   29.1279    1.7040 H         1 UNK         0.0940 
     88 H88        27.2086   29.5891    1.9709 H         1 UNK         0.0703 
     89 H89        25.7064   28.4131   -0.1775 H         1 UNK         0.3081 
     90 H90        26.7465   28.5505   -2.5470 H         1 UNK         0.0719 
     91 H91        29.1050   29.2299   -2.9685 H         1 UNK         0.0809 
     92 H92        29.6855   27.7948   -2.1353 H         1 UNK         0.0809 
     93 H93        28.7812   27.6421   -3.6420 H         1 UNK         0.0809 
     94 H94        27.9933   26.0863   -1.6827 H         1 UNK         0.2990 
     95 H95        25.4032   24.5570   -0.1625 H         1 UNK         0.0690 
     96 H96        24.8505   23.0279   -2.0482 H         1 UNK         0.0788 
     97 H97        25.4463   24.2143   -3.2109 H         1 UNK         0.0788 
     98 H98        24.0242   24.5635   -2.2384 H         1 UNK         0.0788 
     99 H99        27.4154   23.4697   -1.9299 H         1 UNK         0.2993 
    100 H100       29.0563   22.1875   -0.4993 H         1 UNK         0.0949 
    101 H101       31.1518   23.2361   -1.4755 H         1 UNK         0.0767 
    102 H102       29.7158   23.7250   -2.3552 H         1 UNK         0.0767 
    103 H103       30.4668   24.8348   -1.2165 H         1 UNK         0.0767 
    104 H104       29.8906   24.0653    1.5602 H         1 UNK         0.3013 
    105 H105       27.7621   31.2630    0.0499 H         1 UNK         0.3121 
    106 H106       26.3398   33.8227    0.4765 H         1 UNK         0.0774 
    107 H107       29.0290   33.1807   -0.8618 H         1 UNK         0.0815 
    108 H108       28.2411   34.7530   -0.8479 H         1 UNK         0.0815 
    109 H109       27.4920   33.4095   -1.6960 H         1 UNK         0.0815 
    110 H110       28.9654   31.9151    1.8310 H         1 UNK         0.2987 
    111 H111       29.0253   33.5157    4.2327 H         1 UNK         0.0949 
    112 H112       31.6037   32.9352    2.6378 H         1 UNK         0.0806 
    113 H113       30.9346   34.5392    2.9348 H         1 UNK         0.0806 
    114 H114       31.5463   33.5788    4.2732 H         1 UNK         0.0806 
    115 H115       29.8860   32.1526    5.9750 H         1 UNK         0.3010 
    116 H116       29.3945   29.2872    5.5396 H         1 UNK         0.0829 
    117 H117       29.6131   29.1836    8.0199 H         1 UNK         0.0813 
    118 H118       30.0923   30.8741    8.0738 H         1 UNK         0.0813 
    119 H119       28.4657   30.4284    7.5561 H         1 UNK         0.0813 
    120 H120       30.8944   27.6883    5.9073 H         1 UNK         0.3038 
    121 H121       32.7230   26.5097    5.9793 H         1 UNK         0.0769 
    122 H122       33.0450   27.5251    8.2097 H         1 UNK         0.0811 
    123 H123       33.9853   28.8411    7.5089 H         1 UNK         0.0811 
    124 H124       34.5945   27.1947    7.4529 H         1 UNK         0.0811 
    125 H125       33.5714   29.7824    4.9187 H         1 UNK         0.3204 
    126 H126       36.0680   29.3475    3.8023 H         1 UNK         0.0748 
    127 H127       35.6179   31.4607    2.5212 H         1 UNK         0.0771 
    128 H128       33.9062   31.3326    2.9079 H         1 UNK         0.0771 
    129 H129       35.0883   31.5880    4.1903 H         1 UNK         0.0771 
    130 H130       32.9716   28.6550    2.2667 H         1 UNK         0.2980 
    131 H131       34.0544   28.1088   -0.3437 H         1 UNK         0.0545 
    132 H132       34.4537   24.6293    1.6719 H         1 UNK         0.3459 
    133 H133       34.3390   26.1659    2.5081 H         1 UNK         0.3459 
    134 H134       31.8777   27.5941   -1.0378 H         1 UNK         0.0616 
    135 H135       31.6811   28.9073    0.0760 H         1 UNK         0.0616 
    136 H136       31.9848   26.8653    2.9399 H         1 UNK         0.0634 
    137 H137       31.0773   28.3615    2.7682 H         1 UNK         0.0634 
@<TRIPOS>BOND
     1    1    2 1    
     2    1   72 1    
     3    1   73 1    
     4    1   74 1    
     5    2    3 2    
     6    2    4 am   BACKBONE|DICT|INTERRES
     7    4    5 1    
     8    4   75 1    
     9    5    6 1    
    10    5   35 1    
    11    5   76 1    
    12    6    7 1    
    13    6   77 1    
    14    6   78 1    
    15    7    8 1    
    16    8    9 1    
    17    8   79 1    
    18    8   80 1    
    19    9   10 ar   
    20    9   14 ar   
    21   10   11 ar   
    22   10   81 1    
    23   11   12 ar   
    24   11   71 1    
    25   12   13 ar   
    26   12   82 1    
    27   13   14 ar   
    28   13   15 1    
    29   14   83 1    
    30   15   16 1    
    31   15   84 1    
    32   15   85 1    
    33   16   17 1    
    34   17   18 1    
    35   17   86 1    
    36   17   87 1    
    37   18   19 1    
    38   18   37 1    
    39   18   88 1    
    40   19   20 am   BACKBONE|DICT|INTERRES
    41   19   89 1    
    42   20   21 2    
    43   20   22 1    
    44   22   23 1    
    45   22   24 1    
    46   22   90 1    
    47   23   91 1    
    48   23   92 1    
    49   23   93 1    
    50   24   25 am   BACKBONE|DICT|INTERRES
    51   24   94 1    
    52   25   26 2    
    53   25   27 1    
    54   27   28 1    
    55   27   29 1    
    56   27   95 1    
    57   28   96 1    
    58   28   97 1    
    59   28   98 1    
    60   29   30 am   BACKBONE|DICT|INTERRES
    61   29   99 1    
    62   30   31 2    
    63   30   32 1    
    64   32   33 1    
    65   32   34 1    
    66   32  100 1    
    67   33  101 1    
    68   33  102 1    
    69   33  103 1    
    70   34   35 am   BACKBONE|DICT|INTERRES
    71   34  104 1    
    72   35   36 2    
    73   37   38 2    
    74   37   39 am   BACKBONE|DICT|INTERRES
    75   39   40 1    
    76   39  105 1    
    77   40   41 1    
    78   40   42 1    
    79   40  106 1    
    80   41  107 1    
    81   41  108 1    
    82   41  109 1    
    83   42   43 2    
    84   42   44 am   BACKBONE|DICT|INTERRES
    85   44   45 1    
    86   44  110 1    
    87   45   46 1    
    88   45   47 1    
    89   45  111 1    
    90   46  112 1    
    91   46  113 1    
    92   46  114 1    
    93   47   48 2    
    94   47   49 am   BACKBONE|DICT|INTERRES
    95   49   50 1    
    96   49  115 1    
    97   50   51 1    
    98   50   52 1    
    99   50  116 1    
   100   51  117 1    
   101   51  118 1    
   102   51  119 1    
   103   52   53 2    
   104   52   54 am   BACKBONE|DICT|INTERRES
   105   54   55 1    
   106   54  120 1    
   107   55   56 1    
   108   55   57 1    
   109   55  121 1    
   110   56  122 1    
   111   56  123 1    
   112   56  124 1    
   113   57   58 2    
   114   57   59 am   BACKBONE|DICT|INTERRES
   115   59   60 1    
   116   59  125 1    
   117   60   61 1    
   118   60   62 1    
   119   60  126 1    
   120   61  127 1    
   121   61  128 1    
   122   61  129 1    
   123   62   63 2    
   124   62   64 am   BACKBONE|DICT|INTERRES
   125   64   65 1    
   126   64  130 1    
   127   65   66 1    
   128   65   69 1    
   129   65  131 1    
   130   66   67 am   BACKBONE|DICT|INTERRES
   131   66   68 2    
   132   67  132 1    
   133   67  133 1    
   134   69   70 1    
   135   69  134 1    
   136   69  135 1    
   137   70   71 1    
   138   71  136 1    
   139   71  137 1    
@<TRIPOS>SUBSTRUCTURE
     1 UNK         1 GROUP             0       ****    0 ROOT    
