@<TRIPOS>MOLECULE
3R136
137   139    1
SMALL
USER_CHARGES


@<TRIPOS>ATOM
      1 CA         28.3885   20.1290    3.2799 C.3       0 UNK        -0.1979 
      2 C          28.8215   20.2929    1.8306 C.2       0 UNK         0.4864 
      3 O          29.0160   19.2942    1.1367 O.2       0 UNK        -0.5359 
      4 N          28.9576   21.5433    1.3714 N.am      1 UNK        -0.4318 
      5 CA         29.3642   21.9109    0.0082 C.3       1 UNK         0.0824 
      6 C6         30.7166   22.6771   -0.0307 C.3       12 UNK        -0.0944 
      7 S7         32.0958   21.6903    0.6555 S.3       12 UNK        -0.2672 
      8 C8         33.1535   22.9580    1.4489 C.3       12 UNK         0.0333 
      9 C9         32.4992   23.7818    2.5611 C.ar      12 UNK        -0.0807 
     10 C10        33.0714   25.0074    2.9161 C.ar      12 UNK        -0.0894 
     11 C11        32.4753   25.8228    3.8835 C.ar      12 UNK        -0.0804 
     12 C12        31.2939   25.4076    4.5031 C.ar      12 UNK        -0.0824 
     13 C13        30.7085   24.1884    4.1565 C.ar      12 UNK        -0.0762 
     14 C14        31.3374   23.3649    3.2205 C.ar      12 UNK        -0.0782 
     15 C15        29.3704   23.7700    4.7408 C.3       12 UNK         0.0230 
     16 S16        28.0395   24.0467    3.5244 S.3       12 UNK        -0.2608 
     17 C17        27.3916   25.6818    4.0111 C.3       12 UNK        -0.0989 
     18 CA         28.1267   26.8842    3.3669 C.3       5 UNK         0.0716 
     19 N          28.1661   26.8122    1.9013 N.am      5 UNK        -0.4135 
     20 C          28.8095   27.6795    1.1025 C.2       4 UNK         0.5031 
     21 O          29.4299   28.6591    1.5131 O.2       4 UNK        -0.5229 
     22 CA         28.6859   27.4689   -0.4156 C.3       4 UNK         0.0329 
     23 CB         29.8806   26.6592   -0.9408 C.3       4 UNK        -0.2001 
     24 N          27.4269   26.8374   -0.8291 N.am      4 UNK        -0.4303 
     25 C          26.2071   27.3554   -0.6065 C.2       3 UNK         0.5044 
     26 O          26.0178   28.4073    0.0052 O.2       3 UNK        -0.5152 
     27 CA         24.9841   26.5804   -1.1302 C.3       3 UNK         0.0319 
     28 CB         24.4510   27.2310   -2.4169 C.3       3 UNK        -0.2001 
     29 N          25.2224   25.1565   -1.3783 N.am      3 UNK        -0.4354 
     30 C          25.5276   24.2476   -0.4427 C.2       2 UNK         0.4964 
     31 O          25.6723   24.5205    0.7505 O.2       2 UNK        -0.5047 
     32 CA         25.7082   22.7888   -0.9083 C.3       2 UNK         0.0288 
     33 CB         25.5639   22.5787   -2.4347 C.3       2 UNK        -0.2113 
     34 N          26.9731   22.2223   -0.4306 N.am      2 UNK        -0.4145 
     35 C          28.2122   22.6847   -0.6661 C.2       1 UNK         0.5006 
     36 O          28.4501   23.6727   -1.3644 O.2       1 UNK        -0.5103 
     37 C          27.5366   28.2058    3.9065 C.2       5 UNK         0.5055 
     38 O          27.8897   28.6060    5.0170 O.2       5 UNK        -0.5220 
     39 N          26.6835   28.8812    3.1184 N.am      6 UNK        -0.4450 
     40 CA         26.0972   30.1848    3.4458 C.3       6 UNK         0.0367 
     41 CB         25.0203   30.5334    2.4064 C.3       6 UNK        -0.1929 
     42 C          27.1281   31.3255    3.5538 C.2       6 UNK         0.5070 
     43 O          26.8313   32.3379    4.1881 O.2       6 UNK        -0.5237 
     44 N          28.3187   31.1480    2.9615 N.am      7 UNK        -0.4739 
     45 CA         29.4403   32.0846    3.0626 C.3       7 UNK         0.0276 
     46 CB         30.3495   31.9012    1.8417 C.3       7 UNK        -0.1927 
     47 C          30.2457   31.9358    4.3686 C.2       7 UNK         0.5013 
     48 O          31.1508   32.7428    4.5977 O.2       7 UNK        -0.5193 
     49 N          29.9252   30.9185    5.1869 N.am      8 UNK        -0.4253 
     50 CA         30.4355   30.5884    6.5276 C.3       8 UNK         0.0242 
     51 CB         30.0858   31.6989    7.5368 C.3       8 UNK        -0.2000 
     52 C          31.9307   30.2295    6.6083 C.2       8 UNK         0.4948 
     53 O          32.2786   29.2445    7.2605 O.2       8 UNK        -0.5275 
     54 N          32.7779   31.0320    5.9621 N.am      9 UNK        -0.4246 
     55 CA         34.2266   30.8670    5.8722 C.3       9 UNK         0.0261 
     56 CB         34.9155   31.6552    6.9989 C.3       9 UNK        -0.1959 
     57 C          34.7674   31.2851    4.4975 C.2       9 UNK         0.5033 
     58 O          35.7534   30.7005    4.0477 O.2       9 UNK        -0.5390 
     59 N          34.1182   32.2458    3.8196 N.am      10 UNK        -0.4215 
     60 CA         34.4939   32.7329    2.4845 C.3       10 UNK         0.0240 
     61 CB         34.0317   34.1960    2.3458 C.3       10 UNK        -0.1982 
     62 C          33.9430   31.8288    1.3608 C.2       10 UNK         0.4970 
     63 O          33.4162   32.3279    0.3655 O.2       10 UNK        -0.4916 
     64 N          34.0360   30.5121    1.5653 N.am      11 UNK        -0.4279 
     65 CA         33.3809   29.4671    0.7657 C.3       11 UNK         0.1003 
     66 C          34.0643   29.1536   -0.5960 C.2       11 UNK         0.5709 
     67 N          35.2405   29.6941   -0.8919 N.am      11 UNK        -0.7358 
     68 O          33.5119   28.4108   -1.4036 O.2       11 UNK        -0.4999 
     69 C69        33.1703   28.1776    1.6019 C.3       12 UNK        -0.0954 
     70 S70        32.3627   28.4910    3.2120 S.3       12 UNK        -0.2268 
     71 C71        33.0815   27.1716    4.2345 C.3       12 UNK         0.0203 
     72 H72        29.2500   19.8936    3.9041 H         1 UNK         0.0888 
     73 H73        27.9183   21.0315    3.6681 H         1 UNK         0.0888 
     74 H74        27.6696   19.3150    3.3699 H         1 UNK         0.0888 
     75 H75        28.7343   22.3234    1.9780 H         1 UNK         0.3017 
     76 H76        29.4908   21.0114   -0.5978 H         1 UNK         0.0873 
     77 H77        30.9809   22.9382   -1.0571 H         1 UNK         0.0745 
     78 H78        30.6308   23.6202    0.5097 H         1 UNK         0.0745 
     79 H79        34.0329   22.4615    1.8607 H         1 UNK         0.0705 
     80 H80        33.5149   23.6281    0.6671 H         1 UNK         0.0705 
     81 H81        33.9741   25.3387    2.4216 H         1 UNK         0.1334 
     82 H82        30.8164   26.0497    5.2308 H         1 UNK         0.1417 
     83 H83        30.8885   22.4146    2.9781 H         1 UNK         0.1562 
     84 H84        29.1627   24.3010    5.6707 H         1 UNK         0.0748 
     85 H85        29.4028   22.7103    4.9977 H         1 UNK         0.0748 
     86 H86        27.4134   25.7553    5.1003 H         1 UNK         0.0940 
     87 H87        26.3349   25.7022    3.7361 H         1 UNK         0.0940 
     88 H88        29.1650   26.8659    3.6965 H         1 UNK         0.0703 
     89 H89        27.6622   26.0433    1.4803 H         1 UNK         0.3081 
     90 H90        28.7169   28.4558   -0.8821 H         1 UNK         0.0719 
     91 H91        30.8188   27.1785   -0.7405 H         1 UNK         0.0809 
     92 H92        29.9440   25.6820   -0.4635 H         1 UNK         0.0809 
     93 H93        29.8196   26.5052   -2.0181 H         1 UNK         0.0809 
     94 H94        27.4981   25.9485   -1.3075 H         1 UNK         0.2990 
     95 H95        24.2085   26.6549   -0.3650 H         1 UNK         0.0690 
     96 H96        24.2320   28.2881   -2.2583 H         1 UNK         0.0788 
     97 H97        23.5264   26.7581   -2.7485 H         1 UNK         0.0788 
     98 H98        25.1739   27.1670   -3.2313 H         1 UNK         0.0788 
     99 H99        25.1410   24.8433   -2.3351 H         1 UNK         0.2993 
    100 H100       24.9132   22.2221   -0.4210 H         1 UNK         0.0949 
    101 H101       25.6758   21.5255   -2.6933 H         1 UNK         0.0767 
    102 H102       24.5782   22.8847   -2.7879 H         1 UNK         0.0767 
    103 H103       26.3123   23.1342   -3.0016 H         1 UNK         0.0767 
    104 H104       26.8871   21.4268    0.1861 H         1 UNK         0.3013 
    105 H105       26.4736   28.5138    2.1972 H         1 UNK         0.3121 
    106 H106       25.6137   30.0930    4.4206 H         1 UNK         0.0774 
    107 H107       24.5143   31.4642    2.6663 H         1 UNK         0.0815 
    108 H108       25.4487   30.6635    1.4118 H         1 UNK         0.0815 
    109 H109       24.2578   29.7568    2.3447 H         1 UNK         0.0815 
    110 H110       28.5015   30.2815    2.4635 H         1 UNK         0.2987 
    111 H111       29.0494   33.1042    3.0408 H         1 UNK         0.0949 
    112 H112       30.8566   30.9370    1.8659 H         1 UNK         0.0806 
    113 H113       29.7899   31.9644    0.9085 H         1 UNK         0.0806 
    114 H114       31.1142   32.6768    1.8117 H         1 UNK         0.0806 
    115 H115       29.1965   30.2910    4.8642 H         1 UNK         0.3010 
    116 H116       29.8893   29.6924    6.8276 H         1 UNK         0.0829 
    117 H117       30.5819   32.6400    7.2972 H         1 UNK         0.0813 
    118 H118       29.0119   31.8842    7.5635 H         1 UNK         0.0813 
    119 H119       30.3914   31.4189    8.5458 H         1 UNK         0.0813 
    120 H120       32.3501   31.7991    5.4476 H         1 UNK         0.3038 
    121 H121       34.4690   29.8085    5.9916 H         1 UNK         0.0769 
    122 H122       34.6877   32.7203    6.9431 H         1 UNK         0.0811 
    123 H123       35.9998   31.5477    6.9450 H         1 UNK         0.0811 
    124 H124       34.6032   31.2967    7.9799 H         1 UNK         0.0811 
    125 H125       33.2802   32.6558    4.2122 H         1 UNK         0.3204 
    126 H126       35.5822   32.7216    2.3946 H         1 UNK         0.0748 
    127 H127       34.3372   34.6167    1.3868 H         1 UNK         0.0771 
    128 H128       32.9466   34.2847    2.4124 H         1 UNK         0.0771 
    129 H129       34.4668   34.8237    3.1237 H         1 UNK         0.0771 
    130 H130       34.5240   30.1970    2.3945 H         1 UNK         0.2980 
    131 H131       32.3893   29.8391    0.5036 H         1 UNK         0.0545 
    132 H132       35.6707   29.4871   -1.7793 H         1 UNK         0.3459 
    133 H133       35.6966   30.3101   -0.2386 H         1 UNK         0.3459 
    134 H134       34.1319   27.6926    1.7763 H         1 UNK         0.0616 
    135 H135       32.5551   27.4603    1.0561 H         1 UNK         0.0616 
    136 H136       34.1659   27.1552    4.1166 H         1 UNK         0.0634 
    137 H137       32.8932   27.3990    5.2843 H         1 UNK         0.0634 
@<TRIPOS>BOND
     1    1    2 1    
     2    1   72 1    
     3    1   73 1    
     4    1   74 1    
     5    2    3 2    
     6    2    4 am   BACKBONE|DICT|INTERRES
     7    4    5 1    
     8    4   75 1    
     9    5    6 1    
    10    5   35 1    
    11    5   76 1    
    12    6    7 1    
    13    6   77 1    
    14    6   78 1    
    15    7    8 1    
    16    8    9 1    
    17    8   79 1    
    18    8   80 1    
    19    9   10 ar   
    20    9   14 ar   
    21   10   11 ar   
    22   10   81 1    
    23   11   12 ar   
    24   11   71 1    
    25   12   13 ar   
    26   12   82 1    
    27   13   14 ar   
    28   13   15 1    
    29   14   83 1    
    30   15   16 1    
    31   15   84 1    
    32   15   85 1    
    33   16   17 1    
    34   17   18 1    
    35   17   86 1    
    36   17   87 1    
    37   18   19 1    
    38   18   37 1    
    39   18   88 1    
    40   19   20 am   BACKBONE|DICT|INTERRES
    41   19   89 1    
    42   20   21 2    
    43   20   22 1    
    44   22   23 1    
    45   22   24 1    
    46   22   90 1    
    47   23   91 1    
    48   23   92 1    
    49   23   93 1    
    50   24   25 am   BACKBONE|DICT|INTERRES
    51   24   94 1    
    52   25   26 2    
    53   25   27 1    
    54   27   28 1    
    55   27   29 1    
    56   27   95 1    
    57   28   96 1    
    58   28   97 1    
    59   28   98 1    
    60   29   30 am   BACKBONE|DICT|INTERRES
    61   29   99 1    
    62   30   31 2    
    63   30   32 1    
    64   32   33 1    
    65   32   34 1    
    66   32  100 1    
    67   33  101 1    
    68   33  102 1    
    69   33  103 1    
    70   34   35 am   BACKBONE|DICT|INTERRES
    71   34  104 1    
    72   35   36 2    
    73   37   38 2    
    74   37   39 am   BACKBONE|DICT|INTERRES
    75   39   40 1    
    76   39  105 1    
    77   40   41 1    
    78   40   42 1    
    79   40  106 1    
    80   41  107 1    
    81   41  108 1    
    82   41  109 1    
    83   42   43 2    
    84   42   44 am   BACKBONE|DICT|INTERRES
    85   44   45 1    
    86   44  110 1    
    87   45   46 1    
    88   45   47 1    
    89   45  111 1    
    90   46  112 1    
    91   46  113 1    
    92   46  114 1    
    93   47   48 2    
    94   47   49 am   BACKBONE|DICT|INTERRES
    95   49   50 1    
    96   49  115 1    
    97   50   51 1    
    98   50   52 1    
    99   50  116 1    
   100   51  117 1    
   101   51  118 1    
   102   51  119 1    
   103   52   53 2    
   104   52   54 am   BACKBONE|DICT|INTERRES
   105   54   55 1    
   106   54  120 1    
   107   55   56 1    
   108   55   57 1    
   109   55  121 1    
   110   56  122 1    
   111   56  123 1    
   112   56  124 1    
   113   57   58 2    
   114   57   59 am   BACKBONE|DICT|INTERRES
   115   59   60 1    
   116   59  125 1    
   117   60   61 1    
   118   60   62 1    
   119   60  126 1    
   120   61  127 1    
   121   61  128 1    
   122   61  129 1    
   123   62   63 2    
   124   62   64 am   BACKBONE|DICT|INTERRES
   125   64   65 1    
   126   64  130 1    
   127   65   66 1    
   128   65   69 1    
   129   65  131 1    
   130   66   67 am   BACKBONE|DICT|INTERRES
   131   66   68 2    
   132   67  132 1    
   133   67  133 1    
   134   69   70 1    
   135   69  134 1    
   136   69  135 1    
   137   70   71 1    
   138   71  136 1    
   139   71  137 1    
@<TRIPOS>SUBSTRUCTURE
     1 UNK         1 GROUP             0       ****    0 ROOT    
