@<TRIPOS>MOLECULE
3R136
137   139    1
SMALL
USER_CHARGES


@<TRIPOS>ATOM
      1 CA         24.7930   19.3606   -0.3956 C.3       0 UNK        -0.1979 
      2 C          26.2831   19.6682   -0.4208 C.2       0 UNK         0.4864 
      3 O          27.0355   18.9911   -1.1235 O.2       0 UNK        -0.5359 
      4 N          26.7157   20.6785    0.3450 N.am      1 UNK        -0.4318 
      5 CA         28.0997   21.1566    0.3919 C.3       1 UNK         0.0824 
      6 C6         28.3320   22.0604    1.6279 C.3       12 UNK        -0.0944 
      7 S7         30.1026   22.3230    1.9958 S.3       12 UNK        -0.2672 
      8 C8         30.1663   22.0316    3.7939 C.3       12 UNK         0.0333 
      9 C9         29.6698   23.2408    4.5746 C.ar      12 UNK        -0.0807 
     10 C10        30.5774   24.1809    5.0708 C.ar      12 UNK        -0.0894 
     11 C11        30.1272   25.3033    5.7740 C.ar      12 UNK        -0.0804 
     12 C12        28.7567   25.4808    5.9852 C.ar      12 UNK        -0.0824 
     13 C13        27.8401   24.5503    5.4866 C.ar      12 UNK        -0.0762 
     14 C14        28.3036   23.4250    4.8005 C.ar      12 UNK        -0.0782 
     15 C15        26.3448   24.7597    5.6599 C.3       12 UNK         0.0230 
     16 S16        25.5666   25.2311    4.0819 S.3       12 UNK        -0.2608 
     17 C17        26.0345   26.9905    3.9402 C.3       12 UNK        -0.0989 
     18 CA         27.3432   27.2507    3.1369 C.3       5 UNK         0.0716 
     19 N          27.3860   26.5838    1.8307 N.am      5 UNK        -0.4135 
     20 C          26.6115   26.8413    0.7674 C.2       4 UNK         0.5031 
     21 O          25.6788   27.6468    0.7791 O.2       4 UNK        -0.5229 
     22 CA         26.9479   26.0833   -0.5364 C.3       4 UNK         0.0329 
     23 CB         26.5869   26.9036   -1.7927 C.3       4 UNK        -0.2001 
     24 N          28.3355   25.6011   -0.6377 N.am      4 UNK        -0.4303 
     25 C          29.4624   26.3298   -0.5484 C.2       3 UNK         0.5044 
     26 O          29.4719   27.5269   -0.2632 O.2       3 UNK        -0.5152 
     27 CA         30.8118   25.6157   -0.7619 C.3       3 UNK         0.0319 
     28 CB         31.6561   25.6675    0.5204 C.3       3 UNK        -0.2001 
     29 N          30.6754   24.2199   -1.1802 N.am      3 UNK        -0.4354 
     30 C          30.4339   23.8144   -2.4353 C.2       2 UNK         0.4964 
     31 O          30.3724   24.5740   -3.4020 O.2       2 UNK        -0.5047 
     32 CA         30.1899   22.3073   -2.6427 C.3       2 UNK         0.0288 
     33 CB         31.4882   21.6060   -3.0739 C.3       2 UNK        -0.2113 
     34 N          29.6446   21.6318   -1.4587 N.am      2 UNK        -0.4145 
     35 C          28.4506   21.9002   -0.9108 C.2       1 UNK         0.5006 
     36 O          27.6680   22.7442   -1.3555 O.2       1 UNK        -0.5103 
     37 C          27.6727   28.7619    3.0507 C.2       5 UNK         0.5055 
     38 O          27.1828   29.5339    3.8788 O.2       5 UNK        -0.5220 
     39 N          28.4889   29.1793    2.0681 N.am      6 UNK        -0.4450 
     40 CA         28.8508   30.5775    1.7986 C.3       6 UNK         0.0367 
     41 CB         29.3581   30.6931    0.3495 C.3       6 UNK        -0.1929 
     42 C          29.8559   31.1640    2.8123 C.2       6 UNK         0.5070 
     43 O          30.8739   31.7307    2.4131 O.2       6 UNK        -0.5237 
     44 N          29.5416   31.0544    4.1092 N.am      7 UNK        -0.4739 
     45 CA         30.3645   31.4684    5.2534 C.3       7 UNK         0.0276 
     46 CB         29.6363   31.0879    6.5528 C.3       7 UNK        -0.1927 
     47 C          30.7491   32.9585    5.2763 C.2       7 UNK         0.5013 
     48 O          31.7554   33.3087    5.8931 O.2       7 UNK        -0.5193 
     49 N          29.9639   33.8012    4.5900 N.am      8 UNK        -0.4253 
     50 CA         30.2570   35.2163    4.3494 C.3       8 UNK         0.0242 
     51 CB         29.0191   35.8908    3.7360 C.3       8 UNK        -0.2000 
     52 C          31.4923   35.4402    3.4546 C.2       8 UNK         0.4948 
     53 O          32.1249   36.4912    3.5671 O.2       8 UNK        -0.5275 
     54 N          31.8143   34.4606    2.5982 N.am      9 UNK        -0.4246 
     55 CA         33.0333   34.4149    1.7968 C.3       9 UNK         0.0261 
     56 CB         32.6977   33.9662    0.3618 C.3       9 UNK        -0.1959 
     57 C          34.0348   33.4730    2.4781 C.2       9 UNK         0.5033 
     58 O          35.0523   33.9445    2.9874 O.2       9 UNK        -0.5390 
     59 N          33.7082   32.1747    2.4970 N.am      10 UNK        -0.4215 
     60 CA         34.4546   31.0664    3.0911 C.3       10 UNK         0.0240 
     61 CB         35.8921   30.9726    2.5332 C.3       10 UNK        -0.1982 
     62 C          33.7069   29.7656    2.7742 C.2       10 UNK         0.4970 
     63 O          33.1041   29.6548    1.7042 O.2       10 UNK        -0.4916 
     64 N          33.8114   28.7881    3.6760 N.am      11 UNK        -0.4279 
     65 CA         33.3093   27.4225    3.4955 C.3       11 UNK         0.1003 
     66 C          34.1348   26.4115    4.3309 C.2       11 UNK         0.5709 
     67 N          34.0556   25.1278    4.0072 N.am      11 UNK        -0.7358 
     68 O          34.8421   26.7758    5.2696 O.2       11 UNK        -0.4999 
     69 C69        31.7723   27.2954    3.7036 C.3       12 UNK        -0.0954 
     70 S70        31.1587   27.8552    5.3298 S.3       12 UNK        -0.2268 
     71 C71        31.1226   26.3205    6.3123 C.3       12 UNK         0.0203 
     72 H72        24.6267   18.3361   -0.0639 H         1 UNK         0.0888 
     73 H73        24.2502   20.0263    0.2754 H         1 UNK         0.0888 
     74 H74        24.3710   19.4687   -1.3944 H         1 UNK         0.0888 
     75 H75        26.0460   21.2183    0.8739 H         1 UNK         0.3017 
     76 H76        28.7431   20.2782    0.4817 H         1 UNK         0.0873 
     77 H77        27.8396   23.0293    1.5192 H         1 UNK         0.0745 
     78 H78        27.8695   21.5852    2.4928 H         1 UNK         0.0745 
     79 H79        29.5879   21.1438    4.0538 H         1 UNK         0.0705 
     80 H80        31.1976   21.8091    4.0718 H         1 UNK         0.0705 
     81 H81        31.6362   24.0411    4.9045 H         1 UNK         0.1334 
     82 H82        28.4062   26.3542    6.5183 H         1 UNK         0.1417 
     83 H83        27.5897   22.7063    4.4249 H         1 UNK         0.1562 
     84 H84        26.1342   25.5111    6.4224 H         1 UNK         0.0748 
     85 H85        25.8913   23.8323    6.0130 H         1 UNK         0.0748 
     86 H86        26.1147   27.4087    4.9453 H         1 UNK         0.0940 
     87 H87        25.1988   27.5132    3.4714 H         1 UNK         0.0940 
     88 H88        28.1698   26.8200    3.7001 H         1 UNK         0.0703 
     89 H89        28.1157   25.8963    1.7185 H         1 UNK         0.3081 
     90 H90        26.3198   25.1912   -0.5323 H         1 UNK         0.0719 
     91 H91        27.1417   27.8419   -1.8327 H         1 UNK         0.0809 
     92 H92        26.8027   26.3469   -2.7046 H         1 UNK         0.0809 
     93 H93        25.5249   27.1514   -1.8115 H         1 UNK         0.0809 
     94 H94        28.4204   24.6185   -0.8739 H         1 UNK         0.2990 
     95 H95        31.3461   26.1656   -1.5396 H         1 UNK         0.0690 
     96 H96        32.6293   25.1980    0.3763 H         1 UNK         0.0788 
     97 H97        31.1589   25.1683    1.3526 H         1 UNK         0.0788 
     98 H98        31.8382   26.7017    0.8140 H         1 UNK         0.0788 
     99 H99        30.7185   23.5228   -0.4498 H         1 UNK         0.2993 
    100 H100       29.4594   22.2062   -3.4486 H         1 UNK         0.0949 
    101 H101       31.9041   22.0710   -3.9690 H         1 UNK         0.0767 
    102 H102       32.2518   21.6548   -2.2964 H         1 UNK         0.0767 
    103 H103       31.3132   20.5558   -3.3090 H         1 UNK         0.0767 
    104 H104       30.2335   20.9347   -1.0250 H         1 UNK         0.3013 
    105 H105       28.8518   28.4984    1.4070 H         1 UNK         0.3121 
    106 H106       27.9434   31.1801    1.8741 H         1 UNK         0.0774 
    107 H107       30.2882   30.1403    0.2072 H         1 UNK         0.0815 
    108 H108       29.5525   31.7325    0.0819 H         1 UNK         0.0815 
    109 H109       28.6269   30.3072   -0.3611 H         1 UNK         0.0815 
    110 H110       28.6682   30.5776    4.3221 H         1 UNK         0.2987 
    111 H111       31.2969   30.9028    5.1993 H         1 UNK         0.0949 
    112 H112       30.2424   31.3310    7.4266 H         1 UNK         0.0806 
    113 H113       28.6888   31.6188    6.6531 H         1 UNK         0.0806 
    114 H114       29.4258   30.0192    6.5946 H         1 UNK         0.0806 
    115 H115       29.1521   33.4157    4.1300 H         1 UNK         0.3010 
    116 H116       30.4625   35.6849    5.3143 H         1 UNK         0.0829 
    117 H117       28.1537   35.8076    4.3938 H         1 UNK         0.0813 
    118 H118       29.1969   36.9546    3.5710 H         1 UNK         0.0813 
    119 H119       28.7548   35.4519    2.7730 H         1 UNK         0.0813 
    120 H120       31.2678   33.6035    2.6111 H         1 UNK         0.3038 
    121 H121       33.4904   35.4051    1.7375 H         1 UNK         0.0769 
    122 H122       32.1803   33.0065    0.3348 H         1 UNK         0.0811 
    123 H123       33.6039   33.8669   -0.2371 H         1 UNK         0.0811 
    124 H124       32.0600   34.6968   -0.1359 H         1 UNK         0.0811 
    125 H125       32.8081   31.8924    2.1103 H         1 UNK         0.3204 
    126 H126       34.4821   31.2124    4.1725 H         1 UNK         0.0748 
    127 H127       36.3949   30.0726    2.8902 H         1 UNK         0.0771 
    128 H128       35.8969   30.9372    1.4430 H         1 UNK         0.0771 
    129 H129       36.5072   31.8162    2.8443 H         1 UNK         0.0771 
    130 H130       34.3561   28.9213    4.5178 H         1 UNK         0.2980 
    131 H131       33.5209   27.1555    2.4586 H         1 UNK         0.0545 
    132 H132       34.5921   24.4599    4.5381 H         1 UNK         0.3459 
    133 H133       33.5001   24.8164    3.2272 H         1 UNK         0.3459 
    134 H134       31.2612   27.8999    2.9529 H         1 UNK         0.0616 
    135 H135       31.4415   26.2754    3.5148 H         1 UNK         0.0616 
    136 H136       32.1244   25.8934    6.3624 H         1 UNK         0.0634 
    137 H137       30.8541   26.5744    7.3387 H         1 UNK         0.0634 
@<TRIPOS>BOND
     1    1    2 1    
     2    1   72 1    
     3    1   73 1    
     4    1   74 1    
     5    2    3 2    
     6    2    4 am   BACKBONE|DICT|INTERRES
     7    4    5 1    
     8    4   75 1    
     9    5    6 1    
    10    5   35 1    
    11    5   76 1    
    12    6    7 1    
    13    6   77 1    
    14    6   78 1    
    15    7    8 1    
    16    8    9 1    
    17    8   79 1    
    18    8   80 1    
    19    9   10 ar   
    20    9   14 ar   
    21   10   11 ar   
    22   10   81 1    
    23   11   12 ar   
    24   11   71 1    
    25   12   13 ar   
    26   12   82 1    
    27   13   14 ar   
    28   13   15 1    
    29   14   83 1    
    30   15   16 1    
    31   15   84 1    
    32   15   85 1    
    33   16   17 1    
    34   17   18 1    
    35   17   86 1    
    36   17   87 1    
    37   18   19 1    
    38   18   37 1    
    39   18   88 1    
    40   19   20 am   BACKBONE|DICT|INTERRES
    41   19   89 1    
    42   20   21 2    
    43   20   22 1    
    44   22   23 1    
    45   22   24 1    
    46   22   90 1    
    47   23   91 1    
    48   23   92 1    
    49   23   93 1    
    50   24   25 am   BACKBONE|DICT|INTERRES
    51   24   94 1    
    52   25   26 2    
    53   25   27 1    
    54   27   28 1    
    55   27   29 1    
    56   27   95 1    
    57   28   96 1    
    58   28   97 1    
    59   28   98 1    
    60   29   30 am   BACKBONE|DICT|INTERRES
    61   29   99 1    
    62   30   31 2    
    63   30   32 1    
    64   32   33 1    
    65   32   34 1    
    66   32  100 1    
    67   33  101 1    
    68   33  102 1    
    69   33  103 1    
    70   34   35 am   BACKBONE|DICT|INTERRES
    71   34  104 1    
    72   35   36 2    
    73   37   38 2    
    74   37   39 am   BACKBONE|DICT|INTERRES
    75   39   40 1    
    76   39  105 1    
    77   40   41 1    
    78   40   42 1    
    79   40  106 1    
    80   41  107 1    
    81   41  108 1    
    82   41  109 1    
    83   42   43 2    
    84   42   44 am   BACKBONE|DICT|INTERRES
    85   44   45 1    
    86   44  110 1    
    87   45   46 1    
    88   45   47 1    
    89   45  111 1    
    90   46  112 1    
    91   46  113 1    
    92   46  114 1    
    93   47   48 2    
    94   47   49 am   BACKBONE|DICT|INTERRES
    95   49   50 1    
    96   49  115 1    
    97   50   51 1    
    98   50   52 1    
    99   50  116 1    
   100   51  117 1    
   101   51  118 1    
   102   51  119 1    
   103   52   53 2    
   104   52   54 am   BACKBONE|DICT|INTERRES
   105   54   55 1    
   106   54  120 1    
   107   55   56 1    
   108   55   57 1    
   109   55  121 1    
   110   56  122 1    
   111   56  123 1    
   112   56  124 1    
   113   57   58 2    
   114   57   59 am   BACKBONE|DICT|INTERRES
   115   59   60 1    
   116   59  125 1    
   117   60   61 1    
   118   60   62 1    
   119   60  126 1    
   120   61  127 1    
   121   61  128 1    
   122   61  129 1    
   123   62   63 2    
   124   62   64 am   BACKBONE|DICT|INTERRES
   125   64   65 1    
   126   64  130 1    
   127   65   66 1    
   128   65   69 1    
   129   65  131 1    
   130   66   67 am   BACKBONE|DICT|INTERRES
   131   66   68 2    
   132   67  132 1    
   133   67  133 1    
   134   69   70 1    
   135   69  134 1    
   136   69  135 1    
   137   70   71 1    
   138   71  136 1    
   139   71  137 1    
@<TRIPOS>SUBSTRUCTURE
     1 UNK         1 GROUP             0       ****    0 ROOT    
