@<TRIPOS>MOLECULE
3R136
137   139    1
SMALL
USER_CHARGES


@<TRIPOS>ATOM
      1 CA         30.6085   25.8205   -4.5892 C.3       0 UNK        -0.1979 
      2 C          29.9842   25.7320   -3.2057 C.2       0 UNK         0.4864 
      3 O          29.0638   26.4910   -2.9018 O.2       0 UNK        -0.5359 
      4 N          30.4628   24.7974   -2.3702 N.am      1 UNK        -0.4318 
      5 CA         30.0599   24.5925   -0.9686 C.3       1 UNK         0.0824 
      6 C6         30.9231   23.5095   -0.2755 C.3       12 UNK        -0.0944 
      7 S7         32.6728   24.0071   -0.1125 S.3       12 UNK        -0.2672 
      8 C8         32.6273   25.2854    1.1916 C.3       12 UNK         0.0333 
      9 C9         32.4692   24.7084    2.5921 C.ar      12 UNK        -0.0807 
     10 C10        33.5904   24.5340    3.4089 C.ar      12 UNK        -0.0894 
     11 C11        33.4502   24.0318    4.7055 C.ar      12 UNK        -0.0804 
     12 C12        32.1797   23.6908    5.1777 C.ar      12 UNK        -0.0824 
     13 C13        31.0464   23.8580    4.3767 C.ar      12 UNK        -0.0762 
     14 C14        31.2028   24.3774    3.0853 C.ar      12 UNK        -0.0782 
     15 C15        29.6869   23.4324    4.9383 C.3       12 UNK         0.0230 
     16 S16        28.2220   24.1940    4.1547 S.3       12 UNK        -0.2608 
     17 C17        28.4610   25.9541    4.5645 C.3       12 UNK        -0.0989 
     18 CA         28.3828   26.8550    3.3037 C.3       5 UNK         0.0716 
     19 N          27.0774   26.8380    2.6273 N.am      5 UNK        -0.4135 
     20 C          25.8908   27.2360    3.1089 C.2       4 UNK         0.5031 
     21 O          25.7275   27.6211    4.2690 O.2       4 UNK        -0.5229 
     22 CA         24.6778   27.2302    2.1544 C.3       4 UNK         0.0329 
     23 CB         23.7818   28.4675    2.3776 C.3       4 UNK        -0.2001 
     24 N          24.9828   27.0934    0.7231 N.am      4 UNK        -0.4303 
     25 C          25.7347   27.8888   -0.0510 C.2       3 UNK         0.5044 
     26 O          26.4266   28.8103    0.3840 O.2       3 UNK        -0.5152 
     27 CA         25.7132   27.5722   -1.5613 C.3       3 UNK         0.0319 
     28 CB         26.4543   28.6278   -2.4029 C.3       3 UNK        -0.2001 
     29 N          26.2588   26.2418   -1.8517 N.am      3 UNK        -0.4354 
     30 C          25.6210   25.0812   -1.6213 C.2       2 UNK         0.4964 
     31 O          24.4623   25.0218   -1.2060 O.2       2 UNK        -0.5047 
     32 CA         26.3882   23.7633   -1.8515 C.3       2 UNK         0.0288 
     33 CB         25.9862   23.1374   -3.1968 C.3       2 UNK        -0.2113 
     34 N          27.8452   23.8989   -1.8046 N.am      2 UNK        -0.4145 
     35 C          28.5550   24.3279   -0.7505 C.2       1 UNK         0.5006 
     36 O          28.0617   24.5691    0.3529 O.2       1 UNK        -0.5103 
     37 C          28.8824   28.2799    3.6169 C.2       5 UNK         0.5055 
     38 O          29.9693   28.6492    3.1679 O.2       5 UNK        -0.5220 
     39 N          28.0972   29.0473    4.3826 N.am      6 UNK        -0.4450 
     40 CA         28.4071   30.3930    4.8672 C.3       6 UNK         0.0367 
     41 CB         27.3186   30.8453    5.8529 C.3       6 UNK        -0.1929 
     42 C          28.5862   31.4255    3.7454 C.2       6 UNK         0.5070 
     43 O          29.5077   32.2380    3.8163 O.2       6 UNK        -0.5237 
     44 N          27.7181   31.3667    2.7262 N.am      7 UNK        -0.4739 
     45 CA         27.8072   32.2227    1.5400 C.3       7 UNK         0.0276 
     46 CB         26.4316   32.3139    0.8597 C.3       7 UNK        -0.1927 
     47 C          28.8844   31.7416    0.5528 C.2       7 UNK         0.5013 
     48 O          29.4310   32.5634   -0.1838 O.2       7 UNK        -0.5193 
     49 N          29.1719   30.4323    0.5584 N.am      8 UNK        -0.4253 
     50 CA         30.1999   29.8001   -0.2647 C.3       8 UNK         0.0242 
     51 CB         30.0043   28.2765   -0.2704 C.3       8 UNK        -0.2000 
     52 C          31.6213   30.1557    0.1953 C.2       8 UNK         0.4948 
     53 O          32.4210   30.6060   -0.6266 O.2       8 UNK        -0.5275 
     54 N          31.9157   29.9324    1.4846 N.am      9 UNK        -0.4246 
     55 CA         33.2519   30.1278    2.0596 C.3       9 UNK         0.0261 
     56 CB         34.1980   28.9945    1.6119 C.3       9 UNK        -0.1959 
     57 C          33.2769   30.2260    3.5916 C.2       9 UNK         0.5033 
     58 O          34.2317   30.7976    4.1200 O.2       9 UNK        -0.5390 
     59 N          32.3016   29.6233    4.2894 N.am      10 UNK        -0.4215 
     60 CA         32.1762   29.4662    5.7499 C.3       10 UNK         0.0240 
     61 CB         32.1050   30.8310    6.4644 C.3       10 UNK        -0.1982 
     62 C          33.2349   28.5550    6.4063 C.2       10 UNK         0.4970 
     63 O          32.8839   27.8150    7.3250 O.2       10 UNK        -0.4916 
     64 N          34.4812   28.6285    5.9247 N.am      11 UNK        -0.4279 
     65 CA         35.6832   27.9048    6.3639 C.3       11 UNK         0.1003 
     66 C          36.0752   28.1277    7.8580 C.2       11 UNK         0.5709 
     67 N          36.9555   27.3060    8.4151 N.am      11 UNK        -0.7358 
     68 O          35.6459   29.0839    8.5019 O.2       11 UNK        -0.4999 
     69 C69        35.7395   26.4360    5.8368 C.3       12 UNK        -0.0954 
     70 S70        34.8350   25.1826    6.8102 S.3       12 UNK        -0.2268 
     71 C71        34.6660   23.8358    5.5986 C.3       12 UNK         0.0203 
     72 H72        29.8503   25.6528   -5.3536 H         1 UNK         0.0888 
     73 H73        31.0342   26.8116   -4.7431 H         1 UNK         0.0888 
     74 H74        31.4007   25.0851   -4.7278 H         1 UNK         0.0888 
     75 H75        31.2210   24.2073   -2.6836 H         1 UNK         0.3017 
     76 H76        30.2376   25.5388   -0.4636 H         1 UNK         0.0873 
     77 H77        30.8895   22.5835   -0.8524 H         1 UNK         0.0745 
     78 H78        30.5368   23.2417    0.7066 H         1 UNK         0.0745 
     79 H79        33.5615   25.8445    1.1313 H         1 UNK         0.0705 
     80 H80        31.8407   26.0130    0.9980 H         1 UNK         0.0705 
     81 H81        34.5724   24.7923    3.0369 H         1 UNK         0.1334 
     82 H82        32.0762   23.2913    6.1778 H         1 UNK         0.1417 
     83 H83        30.3381   24.5189    2.4554 H         1 UNK         0.1562 
     84 H84        29.6468   23.6450    6.0080 H         1 UNK         0.0748 
     85 H85        29.6014   22.3497    4.8378 H         1 UNK         0.0748 
     86 H86        29.4281   26.0743    5.0574 H         1 UNK         0.0940 
     87 H87        27.7146   26.2408    5.3067 H         1 UNK         0.0940 
     88 H88        29.0821   26.4561    2.5685 H         1 UNK         0.0703 
     89 H89        27.1019   26.5220    1.6674 H         1 UNK         0.3081 
     90 H90        24.0964   26.3468    2.4219 H         1 UNK         0.0719 
     91 H91        23.4215   28.5168    3.4059 H         1 UNK         0.0809 
     92 H92        24.3187   29.3952    2.1759 H         1 UNK         0.0809 
     93 H93        22.9031   28.4425    1.7330 H         1 UNK         0.0809 
     94 H94        24.5222   26.3204    0.2494 H         1 UNK         0.2990 
     95 H95        24.6668   27.5914   -1.8733 H         1 UNK         0.0690 
     96 H96        26.3544   28.4241   -3.4690 H         1 UNK         0.0788 
     97 H97        27.5180   28.6644   -2.1716 H         1 UNK         0.0788 
     98 H98        26.0495   29.6247   -2.2235 H         1 UNK         0.0788 
     99 H99        27.2180   26.2184   -2.1885 H         1 UNK         0.2993 
    100 H100       26.0967   23.0799   -1.0511 H         1 UNK         0.0949 
    101 H101       26.2760   23.7688   -4.0379 H         1 UNK         0.0767 
    102 H102       26.4481   22.1593   -3.3343 H         1 UNK         0.0767 
    103 H103       24.9061   22.9937   -3.2539 H         1 UNK         0.0767 
    104 H104       28.3406   23.7450   -2.6706 H         1 UNK         0.3013 
    105 H105       27.1921   28.6568    4.6410 H         1 UNK         0.3121 
    106 H106       29.3489   30.3356    5.4121 H         1 UNK         0.0774 
    107 H107       27.5322   31.8427    6.2399 H         1 UNK         0.0815 
    108 H108       26.3353   30.8807    5.3821 H         1 UNK         0.0815 
    109 H109       27.2558   30.1738    6.7093 H         1 UNK         0.0815 
    110 H110       26.9920   30.6644    2.7372 H         1 UNK         0.2987 
    111 H111       28.0871   33.2301    1.8574 H         1 UNK         0.0949 
    112 H112       26.0817   31.3433    0.5109 H         1 UNK         0.0806 
    113 H113       25.6798   32.7171    1.5382 H         1 UNK         0.0806 
    114 H114       26.4710   32.9739   -0.0079 H         1 UNK         0.0806 
    115 H115       28.6387   29.8319    1.1705 H         1 UNK         0.3010 
    116 H116       30.0749   30.1582   -1.2891 H         1 UNK         0.0829 
    117 H117       28.9992   27.9986   -0.5826 H         1 UNK         0.0813 
    118 H118       30.7024   27.8114   -0.9670 H         1 UNK         0.0813 
    119 H119       30.1776   27.8324    0.7082 H         1 UNK         0.0813 
    120 H120       31.1817   29.5786    2.0925 H         1 UNK         0.3038 
    121 H121       33.6438   31.0760    1.6848 H         1 UNK         0.0769 
    122 H122       34.2877   28.9414    0.5270 H         1 UNK         0.0811 
    123 H123       33.8506   28.0257    1.9698 H         1 UNK         0.0811 
    124 H124       35.2037   29.1445    2.0070 H         1 UNK         0.0811 
    125 H125       31.5559   29.1606    3.7733 H         1 UNK         0.3204 
    126 H126       31.2176   28.9676    5.8997 H         1 UNK         0.0748 
    127 H127       31.8386   30.7043    7.5145 H         1 UNK         0.0771 
    128 H128       33.0604   31.3557    6.4366 H         1 UNK         0.0771 
    129 H129       31.3564   31.4823    6.0137 H         1 UNK         0.0771 
    130 H130       34.6393   29.3475    5.2240 H         1 UNK         0.2980 
    131 H131       36.4760   28.4306    5.8310 H         1 UNK         0.0545 
    132 H132       37.2337   27.4595    9.3715 H         1 UNK         0.3459 
    133 H133       37.3147   26.5137    7.9067 H         1 UNK         0.3459 
    134 H134       36.7793   26.1106    5.7810 H         1 UNK         0.0616 
    135 H135       35.3763   26.4093    4.8088 H         1 UNK         0.0616 
    136 H136       34.5691   22.8924    6.1378 H         1 UNK         0.0634 
    137 H137       35.5784   23.7541    5.0058 H         1 UNK         0.0634 
@<TRIPOS>BOND
     1    1    2 1    
     2    1   72 1    
     3    1   73 1    
     4    1   74 1    
     5    2    3 2    
     6    2    4 am   BACKBONE|DICT|INTERRES
     7    4    5 1    
     8    4   75 1    
     9    5    6 1    
    10    5   35 1    
    11    5   76 1    
    12    6    7 1    
    13    6   77 1    
    14    6   78 1    
    15    7    8 1    
    16    8    9 1    
    17    8   79 1    
    18    8   80 1    
    19    9   10 ar   
    20    9   14 ar   
    21   10   11 ar   
    22   10   81 1    
    23   11   12 ar   
    24   11   71 1    
    25   12   13 ar   
    26   12   82 1    
    27   13   14 ar   
    28   13   15 1    
    29   14   83 1    
    30   15   16 1    
    31   15   84 1    
    32   15   85 1    
    33   16   17 1    
    34   17   18 1    
    35   17   86 1    
    36   17   87 1    
    37   18   19 1    
    38   18   37 1    
    39   18   88 1    
    40   19   20 am   BACKBONE|DICT|INTERRES
    41   19   89 1    
    42   20   21 2    
    43   20   22 1    
    44   22   23 1    
    45   22   24 1    
    46   22   90 1    
    47   23   91 1    
    48   23   92 1    
    49   23   93 1    
    50   24   25 am   BACKBONE|DICT|INTERRES
    51   24   94 1    
    52   25   26 2    
    53   25   27 1    
    54   27   28 1    
    55   27   29 1    
    56   27   95 1    
    57   28   96 1    
    58   28   97 1    
    59   28   98 1    
    60   29   30 am   BACKBONE|DICT|INTERRES
    61   29   99 1    
    62   30   31 2    
    63   30   32 1    
    64   32   33 1    
    65   32   34 1    
    66   32  100 1    
    67   33  101 1    
    68   33  102 1    
    69   33  103 1    
    70   34   35 am   BACKBONE|DICT|INTERRES
    71   34  104 1    
    72   35   36 2    
    73   37   38 2    
    74   37   39 am   BACKBONE|DICT|INTERRES
    75   39   40 1    
    76   39  105 1    
    77   40   41 1    
    78   40   42 1    
    79   40  106 1    
    80   41  107 1    
    81   41  108 1    
    82   41  109 1    
    83   42   43 2    
    84   42   44 am   BACKBONE|DICT|INTERRES
    85   44   45 1    
    86   44  110 1    
    87   45   46 1    
    88   45   47 1    
    89   45  111 1    
    90   46  112 1    
    91   46  113 1    
    92   46  114 1    
    93   47   48 2    
    94   47   49 am   BACKBONE|DICT|INTERRES
    95   49   50 1    
    96   49  115 1    
    97   50   51 1    
    98   50   52 1    
    99   50  116 1    
   100   51  117 1    
   101   51  118 1    
   102   51  119 1    
   103   52   53 2    
   104   52   54 am   BACKBONE|DICT|INTERRES
   105   54   55 1    
   106   54  120 1    
   107   55   56 1    
   108   55   57 1    
   109   55  121 1    
   110   56  122 1    
   111   56  123 1    
   112   56  124 1    
   113   57   58 2    
   114   57   59 am   BACKBONE|DICT|INTERRES
   115   59   60 1    
   116   59  125 1    
   117   60   61 1    
   118   60   62 1    
   119   60  126 1    
   120   61  127 1    
   121   61  128 1    
   122   61  129 1    
   123   62   63 2    
   124   62   64 am   BACKBONE|DICT|INTERRES
   125   64   65 1    
   126   64  130 1    
   127   65   66 1    
   128   65   69 1    
   129   65  131 1    
   130   66   67 am   BACKBONE|DICT|INTERRES
   131   66   68 2    
   132   67  132 1    
   133   67  133 1    
   134   69   70 1    
   135   69  134 1    
   136   69  135 1    
   137   70   71 1    
   138   71  136 1    
   139   71  137 1    
@<TRIPOS>SUBSTRUCTURE
     1 UNK         1 GROUP             0       ****    0 ROOT    
