@<TRIPOS>MOLECULE
3R136
137   139    1
SMALL
USER_CHARGES


@<TRIPOS>ATOM
      1 CA         29.4151   19.4860   -1.2356 C.3       0 UNK        -0.1979 
      2 C          28.8508   20.6125   -2.0889 C.2       0 UNK         0.4864 
      3 O          28.2249   20.3480   -3.1170 O.2       0 UNK        -0.5359 
      4 N          29.0752   21.8650   -1.6741 N.am      1 UNK        -0.4318 
      5 CA         28.5349   23.0709   -2.3075 C.3       1 UNK         0.0824 
      6 C6         29.3789   24.3261   -1.9610 C.3       12 UNK        -0.0944 
      7 S7         29.6298   24.6160   -0.1727 S.3       12 UNK        -0.2672 
      8 C8         31.4097   24.2776   -0.0032 C.3       12 UNK         0.0333 
      9 C9         31.9050   24.6821    1.3753 C.ar      12 UNK        -0.0807 
     10 C10        32.3928   25.9734    1.5898 C.ar      12 UNK        -0.0894 
     11 C11        32.8201   26.3689    2.8601 C.ar      12 UNK        -0.0804 
     12 C12        32.7707   25.4599    3.9207 C.ar      12 UNK        -0.0824 
     13 C13        32.2522   24.1756    3.7240 C.ar      12 UNK        -0.0762 
     14 C14        31.8445   23.7833    2.4438 C.ar      12 UNK        -0.0782 
     15 C15        32.0565   23.2386    4.9067 C.3       12 UNK         0.0230 
     16 S16        30.2863   22.9170    5.2179 S.3       12 UNK        -0.2608 
     17 C17        29.6565   24.5470    5.7662 C.3       12 UNK        -0.0989 
     18 CA         29.2718   25.5123    4.6070 C.3       5 UNK         0.0716 
     19 N          28.4602   24.8997    3.5538 N.am      5 UNK        -0.4135 
     20 C          27.1798   24.5218    3.6325 C.2       4 UNK         0.5031 
     21 O          26.4841   24.6011    4.6472 O.2       4 UNK        -0.5229 
     22 CA         26.5751   23.9907    2.3218 C.3       4 UNK         0.0329 
     23 CB         25.5936   22.8340    2.5798 C.3       4 UNK        -0.2001 
     24 N          25.8989   25.0138    1.5169 N.am      4 UNK        -0.4303 
     25 C          26.3558   26.2220    1.1526 C.2       3 UNK         0.5044 
     26 O          27.4072   26.7253    1.5511 O.2       3 UNK        -0.5152 
     27 CA         25.5097   26.9596    0.0997 C.3       3 UNK         0.0319 
     28 CB         26.0440   28.3695   -0.2132 C.3       3 UNK        -0.2001 
     29 N          25.4877   26.1756   -1.1363 N.am      3 UNK        -0.4354 
     30 C          24.6203   25.1909   -1.4066 C.2       2 UNK         0.4964 
     31 O          23.6641   24.9051   -0.6850 O.2       2 UNK        -0.5047 
     32 CA         24.9074   24.3456   -2.6591 C.3       2 UNK         0.0288 
     33 CB         24.3887   25.0494   -3.9238 C.3       2 UNK        -0.2113 
     34 N          26.3317   24.0266   -2.8186 N.am      2 UNK        -0.4145 
     35 C          27.0382   23.2586   -1.9738 C.2       1 UNK         0.5006 
     36 O          26.5552   22.7239   -0.9716 O.2       1 UNK        -0.5103 
     37 C          28.7024   26.8633    5.0930 C.2       5 UNK         0.5055 
     38 O          28.7921   27.1793    6.2813 O.2       5 UNK        -0.5220 
     39 N          28.1441   27.6462    4.1611 N.am      6 UNK        -0.4450 
     40 CA         27.5977   28.9822    4.3926 C.3       6 UNK         0.0367 
     41 CB         26.1380   28.8697    4.8760 C.3       6 UNK        -0.1929 
     42 C          27.7466   29.8473    3.1290 C.2       6 UNK         0.5070 
     43 O          26.8650   30.6559    2.8360 O.2       6 UNK        -0.5237 
     44 N          28.8401   29.6377    2.3836 N.am      7 UNK        -0.4739 
     45 CA         29.1493   30.3205    1.1295 C.3       7 UNK         0.0276 
     46 CB         30.0637   29.4265    0.2678 C.3       7 UNK        -0.1927 
     47 C          29.7296   31.7224    1.3850 C.2       7 UNK         0.5013 
     48 O          28.9739   32.6954    1.3711 O.2       7 UNK        -0.5193 
     49 N          31.0494   31.8143    1.5920 N.am      8 UNK        -0.4253 
     50 CA         31.7956   33.0594    1.7723 C.3       8 UNK         0.0242 
     51 CB         31.8624   33.8385    0.4395 C.3       8 UNK        -0.2000 
     52 C          33.2097   32.7447    2.2783 C.2       8 UNK         0.4948 
     53 O          33.6153   31.5789    2.2818 O.2       8 UNK        -0.5275 
     54 N          33.9416   33.8033    2.6562 N.am      9 UNK        -0.4246 
     55 CA         35.3497   33.8269    3.0697 C.3       9 UNK         0.0261 
     56 CB         36.2789   33.4718    1.8868 C.3       9 UNK        -0.1959 
     57 C          35.6187   32.9813    4.3261 C.2       9 UNK         0.5033 
     58 O          35.5372   33.5077    5.4367 O.2       9 UNK        -0.5390 
     59 N          35.9332   31.6948    4.1308 N.am      10 UNK        -0.4215 
     60 CA         36.1956   30.7158    5.1886 C.3       10 UNK         0.0240 
     61 CB         36.9081   29.5005    4.5708 C.3       10 UNK        -0.1982 
     62 C          34.9329   30.2705    5.9507 C.2       10 UNK         0.4970 
     63 O          35.0648   29.6565    7.0103 O.2       10 UNK        -0.4916 
     64 N          33.7490   30.5654    5.4059 N.am      11 UNK        -0.4279 
     65 CA         32.4395   30.1975    5.9516 C.3       11 UNK         0.1003 
     66 C          31.4037   31.3440    5.7916 C.2       11 UNK         0.5709 
     67 N          30.2194   31.1946    6.3702 N.am      11 UNK        -0.7358 
     68 O          31.6585   32.3696    5.1634 O.2       11 UNK        -0.4999 
     69 C69        31.9533   28.8394    5.3782 C.3       12 UNK        -0.0954 
     70 S70        31.8489   28.8335    3.5559 S.3       12 UNK        -0.2268 
     71 C71        33.2703   27.8002    3.0908 C.3       12 UNK         0.0203 
     72 H72        28.6082   18.8467   -0.8783 H         1 UNK         0.0888 
     73 H73        30.0994   18.8755   -1.8242 H         1 UNK         0.0888 
     74 H74        29.9575   19.8634   -0.3688 H         1 UNK         0.0888 
     75 H75        29.5513   22.0239   -0.7984 H         1 UNK         0.3017 
     76 H76        28.5982   22.9280   -3.3888 H         1 UNK         0.0873 
     77 H77        30.3522   24.2400   -2.4462 H         1 UNK         0.0745 
     78 H78        28.9306   25.2244   -2.3891 H         1 UNK         0.0745 
     79 H79        31.6016   23.2185   -0.1808 H         1 UNK         0.0705 
     80 H80        31.9614   24.8263   -0.7683 H         1 UNK         0.0705 
     81 H81        32.4128   26.6815    0.7724 H         1 UNK         0.1334 
     82 H82        33.0757   25.7736    4.9094 H         1 UNK         0.1417 
     83 H83        31.4360   22.7933    2.2921 H         1 UNK         0.1562 
     84 H84        32.5163   23.6401    5.8111 H         1 UNK         0.0748 
     85 H85        32.5579   22.2924    4.6994 H         1 UNK         0.0748 
     86 H86        30.4041   25.0097    6.4132 H         1 UNK         0.0940 
     87 H87        28.7852   24.3645    6.3979 H         1 UNK         0.0940 
     88 H88        30.1863   25.8041    4.1004 H         1 UNK         0.0703 
     89 H89        28.9092   24.8425    2.6495 H         1 UNK         0.3081 
     90 H90        27.3887   23.5939    1.7114 H         1 UNK         0.0719 
     91 H91        24.7044   23.1698    3.1150 H         1 UNK         0.0809 
     92 H92        25.2706   22.3741    1.6453 H         1 UNK         0.0809 
     93 H93        26.0609   22.0519    3.1797 H         1 UNK         0.0809 
     94 H94        25.0281   24.7212    1.0920 H         1 UNK         0.2990 
     95 H95        24.4972   27.0644    0.4956 H         1 UNK         0.0690 
     96 H96        26.0497   28.9892    0.6839 H         1 UNK         0.0788 
     97 H97        25.4210   28.8754   -0.9508 H         1 UNK         0.0788 
     98 H98        27.0642   28.3412   -0.5978 H         1 UNK         0.0788 
     99 H99        26.2659   26.3116   -1.7646 H         1 UNK         0.2993 
    100 H100       24.3664   23.4031   -2.5472 H         1 UNK         0.0949 
    101 H101       24.9119   25.9881   -4.1109 H         1 UNK         0.0767 
    102 H102       24.5054   24.4180   -4.8050 H         1 UNK         0.0767 
    103 H103       23.3264   25.2809   -3.8325 H         1 UNK         0.0767 
    104 H104       26.7946   24.4195   -3.6257 H         1 UNK         0.3013 
    105 H105       28.0575   27.2988    3.2051 H         1 UNK         0.3121 
    106 H106       28.1829   29.4773    5.1698 H         1 UNK         0.0774 
    107 H107       25.7190   29.8520    5.0975 H         1 UNK         0.0815 
    108 H108       25.5042   28.4030    4.1210 H         1 UNK         0.0815 
    109 H109       26.0652   28.2763    5.7874 H         1 UNK         0.0815 
    110 H110       29.5359   28.9881    2.7242 H         1 UNK         0.2987 
    111 H111       28.2191   30.4589    0.5739 H         1 UNK         0.0949 
    112 H112       30.3077   29.9153   -0.6763 H         1 UNK         0.0806 
    113 H113       29.5707   28.4844    0.0250 H         1 UNK         0.0806 
    114 H114       31.0033   29.1829    0.7624 H         1 UNK         0.0806 
    115 H115       31.6185   30.9786    1.6608 H         1 UNK         0.3010 
    116 H116       31.2905   33.6609    2.5311 H         1 UNK         0.0829 
    117 H117       32.3467   33.2510   -0.3416 H         1 UNK         0.0813 
    118 H118       30.8708   34.1141    0.0811 H         1 UNK         0.0813 
    119 H119       32.4252   34.7665    0.5447 H         1 UNK         0.0813 
    120 H120       33.4882   34.7067    2.6526 H         1 UNK         0.3038 
    121 H121       35.5676   34.8596    3.3475 H         1 UNK         0.0769 
    122 H122       36.0656   32.4901    1.4632 H         1 UNK         0.0811 
    123 H123       37.3253   33.4765    2.1954 H         1 UNK         0.0811 
    124 H124       36.1799   34.2011    1.0827 H         1 UNK         0.0811 
    125 H125       35.8953   31.3443    3.1831 H         1 UNK         0.3204 
    126 H126       36.8678   31.1731    5.9177 H         1 UNK         0.0748 
    127 H127       37.8505   29.7885    4.1044 H         1 UNK         0.0771 
    128 H128       37.1410   28.7535    5.3311 H         1 UNK         0.0771 
    129 H129       36.2932   29.0139    3.8128 H         1 UNK         0.0771 
    130 H130       33.7159   31.0853    4.5374 H         1 UNK         0.2980 
    131 H131       32.5484   30.0800    7.0313 H         1 UNK         0.0545 
    132 H132       29.9995   30.3702    6.9065 H         1 UNK         0.3459 
    133 H133       29.5430   31.9367    6.2885 H         1 UNK         0.3459 
    134 H134       32.6186   28.0421    5.7103 H         1 UNK         0.0616 
    135 H135       30.9752   28.5838    5.7820 H         1 UNK         0.0616 
    136 H136       34.0480   27.8466    3.8541 H         1 UNK         0.0634 
    137 H137       33.7130   28.2060    2.1799 H         1 UNK         0.0634 
@<TRIPOS>BOND
     1    1    2 1    
     2    1   72 1    
     3    1   73 1    
     4    1   74 1    
     5    2    3 2    
     6    2    4 am   BACKBONE|DICT|INTERRES
     7    4    5 1    
     8    4   75 1    
     9    5    6 1    
    10    5   35 1    
    11    5   76 1    
    12    6    7 1    
    13    6   77 1    
    14    6   78 1    
    15    7    8 1    
    16    8    9 1    
    17    8   79 1    
    18    8   80 1    
    19    9   10 ar   
    20    9   14 ar   
    21   10   11 ar   
    22   10   81 1    
    23   11   12 ar   
    24   11   71 1    
    25   12   13 ar   
    26   12   82 1    
    27   13   14 ar   
    28   13   15 1    
    29   14   83 1    
    30   15   16 1    
    31   15   84 1    
    32   15   85 1    
    33   16   17 1    
    34   17   18 1    
    35   17   86 1    
    36   17   87 1    
    37   18   19 1    
    38   18   37 1    
    39   18   88 1    
    40   19   20 am   BACKBONE|DICT|INTERRES
    41   19   89 1    
    42   20   21 2    
    43   20   22 1    
    44   22   23 1    
    45   22   24 1    
    46   22   90 1    
    47   23   91 1    
    48   23   92 1    
    49   23   93 1    
    50   24   25 am   BACKBONE|DICT|INTERRES
    51   24   94 1    
    52   25   26 2    
    53   25   27 1    
    54   27   28 1    
    55   27   29 1    
    56   27   95 1    
    57   28   96 1    
    58   28   97 1    
    59   28   98 1    
    60   29   30 am   BACKBONE|DICT|INTERRES
    61   29   99 1    
    62   30   31 2    
    63   30   32 1    
    64   32   33 1    
    65   32   34 1    
    66   32  100 1    
    67   33  101 1    
    68   33  102 1    
    69   33  103 1    
    70   34   35 am   BACKBONE|DICT|INTERRES
    71   34  104 1    
    72   35   36 2    
    73   37   38 2    
    74   37   39 am   BACKBONE|DICT|INTERRES
    75   39   40 1    
    76   39  105 1    
    77   40   41 1    
    78   40   42 1    
    79   40  106 1    
    80   41  107 1    
    81   41  108 1    
    82   41  109 1    
    83   42   43 2    
    84   42   44 am   BACKBONE|DICT|INTERRES
    85   44   45 1    
    86   44  110 1    
    87   45   46 1    
    88   45   47 1    
    89   45  111 1    
    90   46  112 1    
    91   46  113 1    
    92   46  114 1    
    93   47   48 2    
    94   47   49 am   BACKBONE|DICT|INTERRES
    95   49   50 1    
    96   49  115 1    
    97   50   51 1    
    98   50   52 1    
    99   50  116 1    
   100   51  117 1    
   101   51  118 1    
   102   51  119 1    
   103   52   53 2    
   104   52   54 am   BACKBONE|DICT|INTERRES
   105   54   55 1    
   106   54  120 1    
   107   55   56 1    
   108   55   57 1    
   109   55  121 1    
   110   56  122 1    
   111   56  123 1    
   112   56  124 1    
   113   57   58 2    
   114   57   59 am   BACKBONE|DICT|INTERRES
   115   59   60 1    
   116   59  125 1    
   117   60   61 1    
   118   60   62 1    
   119   60  126 1    
   120   61  127 1    
   121   61  128 1    
   122   61  129 1    
   123   62   63 2    
   124   62   64 am   BACKBONE|DICT|INTERRES
   125   64   65 1    
   126   64  130 1    
   127   65   66 1    
   128   65   69 1    
   129   65  131 1    
   130   66   67 am   BACKBONE|DICT|INTERRES
   131   66   68 2    
   132   67  132 1    
   133   67  133 1    
   134   69   70 1    
   135   69  134 1    
   136   69  135 1    
   137   70   71 1    
   138   71  136 1    
   139   71  137 1    
@<TRIPOS>SUBSTRUCTURE
     1 UNK         1 GROUP             0       ****    0 ROOT    
