@<TRIPOS>MOLECULE
3R136
137   139    1
SMALL
USER_CHARGES


@<TRIPOS>ATOM
      1 CA         26.5552   21.9287    1.1577 C.3       0 UNK        -0.1979 
      2 C          27.0000   23.3721    0.9464 C.2       0 UNK         0.4864 
      3 O          26.3541   24.2820    1.4655 O.2       0 UNK        -0.5359 
      4 N          28.0830   23.6343    0.2069 N.am      1 UNK        -0.4318 
      5 CA         28.8937   22.6882   -0.5610 C.3       1 UNK         0.0824 
      6 C6         30.1504   22.2044    0.2183 C.3       12 UNK        -0.0944 
      7 S7         31.3182   23.5219    0.7202 S.3       12 UNK        -0.2672 
      8 C8         31.9172   22.9125    2.3249 C.3       12 UNK         0.0333 
      9 C9         31.3702   23.7464    3.4716 C.ar      12 UNK        -0.0807 
     10 C10        32.0327   24.9162    3.8483 C.ar      12 UNK        -0.0894 
     11 C11        31.5767   25.6787    4.9256 C.ar      12 UNK        -0.0804 
     12 C12        30.4498   25.2573    5.6359 C.ar      12 UNK        -0.0824 
     13 C13        29.7639   24.0959    5.2594 C.ar      12 UNK        -0.0762 
     14 C14        30.2283   23.3458    4.1721 C.ar      12 UNK        -0.0782 
     15 C15        28.5475   23.6216    6.0481 C.3       12 UNK         0.0230 
     16 S16        27.3275   24.9405    6.3627 S.3       12 UNK        -0.2608 
     17 C17        26.7299   25.3183    4.6798 C.3       12 UNK        -0.0989 
     18 CA         27.2202   26.6770    4.1124 C.3       5 UNK         0.0716 
     19 N          26.8979   26.7749    2.6823 N.am      5 UNK        -0.4135 
     20 C          27.1757   27.8025    1.8699 C.2       4 UNK         0.5031 
     21 O          27.7784   28.8191    2.2192 O.2       4 UNK        -0.5229 
     22 CA         26.6100   27.7185    0.4429 C.3       4 UNK         0.0329 
     23 CB         25.4501   28.7145    0.2752 C.3       4 UNK        -0.2001 
     24 N          27.6176   27.9726   -0.5890 N.am      4 UNK        -0.4303 
     25 C          28.7044   27.2167   -0.7780 C.2       3 UNK         0.5044 
     26 O          29.0112   26.2638   -0.0561 O.2       3 UNK        -0.5152 
     27 CA         29.5842   27.5529   -1.9889 C.3       3 UNK         0.0319 
     28 CB         30.5587   28.6961   -1.6699 C.3       3 UNK        -0.2001 
     29 N          30.3266   26.3383   -2.3035 N.am      3 UNK        -0.4354 
     30 C          30.4078   25.7534   -3.5028 C.2       2 UNK         0.4964 
     31 O          30.1112   26.3043   -4.5635 O.2       2 UNK        -0.5047 
     32 CA         30.8503   24.2769   -3.5081 C.3       2 UNK         0.0288 
     33 CB         32.3771   24.1702   -3.6520 C.3       2 UNK        -0.2113 
     34 N          30.4250   23.5504   -2.3040 N.am      2 UNK        -0.4145 
     35 C          29.1531   23.3130   -1.9481 C.2       1 UNK         0.5006 
     36 O          28.1886   23.5829   -2.6675 O.2       1 UNK        -0.5103 
     37 C          26.6824   27.8754    4.9318 C.2       5 UNK         0.5055 
     38 O          27.3613   28.3398    5.8481 O.2       5 UNK        -0.5220 
     39 N          25.4949   28.3792    4.5596 N.am      6 UNK        -0.4450 
     40 CA         24.8628   29.5613    5.1522 C.3       6 UNK         0.0367 
     41 CB         23.4129   29.6649    4.6521 C.3       6 UNK        -0.1929 
     42 C          25.6201   30.8744    4.8759 C.2       6 UNK         0.5070 
     43 O          25.5856   31.7723    5.7177 O.2       6 UNK        -0.5237 
     44 N          26.2844   30.9694    3.7151 N.am      7 UNK        -0.4739 
     45 CA         27.1500   32.0957    3.3535 C.3       7 UNK         0.0276 
     46 CB         27.1903   32.2443    1.8230 C.3       7 UNK        -0.1927 
     47 C          28.5688   31.9146    3.9161 C.2       7 UNK         0.5013 
     48 O          29.1955   32.9006    4.3038 O.2       7 UNK        -0.5193 
     49 N          29.0382   30.6577    3.9391 N.am      8 UNK        -0.4253 
     50 CA         30.3357   30.1786    4.4279 C.3       8 UNK         0.0242 
     51 CB         30.5064   30.4568    5.9358 C.3       8 UNK        -0.2000 
     52 C          31.5371   30.6663    3.5968 C.2       8 UNK         0.4948 
     53 O          32.6692   30.6201    4.0805 O.2       8 UNK        -0.5275 
     54 N          31.2975   31.0742    2.3416 N.am      9 UNK        -0.4246 
     55 CA         32.3134   31.5852    1.4118 C.3       9 UNK         0.0261 
     56 CB         31.6196   32.1500    0.1625 C.3       9 UNK        -0.1959 
     57 C          33.3936   30.5562    1.0242 C.2       9 UNK         0.5033 
     58 O          34.4933   30.9540    0.6390 O.2       9 UNK        -0.5390 
     59 N          33.0761   29.2611    1.1609 N.am      10 UNK        -0.4215 
     60 CA         34.0172   28.1482    1.0190 C.3       10 UNK         0.0240 
     61 CB         33.2268   26.8452    0.8028 C.3       10 UNK        -0.1982 
     62 C          34.9939   28.0158    2.2067 C.2       10 UNK         0.4970 
     63 O          36.0435   27.3935    2.0393 O.2       10 UNK        -0.4916 
     64 N          34.6462   28.5907    3.3661 N.am      11 UNK        -0.4279 
     65 CA         35.4853   28.6456    4.5722 C.3       11 UNK         0.1003 
     66 C          36.1836   30.0236    4.6992 C.2       11 UNK         0.5709 
     67 N          35.4837   31.1262    4.4580 N.am      11 UNK        -0.7358 
     68 O          37.3698   30.0923    5.0118 O.2       11 UNK        -0.4999 
     69 C69        34.6771   28.3301    5.8593 C.3       12 UNK        -0.0954 
     70 S70        33.9965   26.6403    5.8641 S.3       12 UNK        -0.2268 
     71 C71        32.2967   26.9626    5.3028 C.3       12 UNK         0.0203 
     72 H72        25.8177   21.8720    1.9580 H         1 UNK         0.0888 
     73 H73        26.0975   21.5336    0.2513 H         1 UNK         0.0888 
     74 H74        27.3934   21.2921    1.4379 H         1 UNK         0.0888 
     75 H75        28.3802   24.6052    0.1102 H         1 UNK         0.3017 
     76 H76        28.2980   21.8019   -0.7844 H         1 UNK         0.0873 
     77 H77        29.8172   21.6765    1.1124 H         1 UNK         0.0745 
     78 H78        30.6968   21.4619   -0.3661 H         1 UNK         0.0745 
     79 H79        31.6698   21.8590    2.4613 H         1 UNK         0.0705 
     80 H80        33.0072   22.9620    2.3264 H         1 UNK         0.0705 
     81 H81        32.9170   25.2284    3.3103 H         1 UNK         0.1334 
     82 H82        30.0982   25.8378    6.4780 H         1 UNK         0.1417 
     83 H83        29.7141   22.4403    3.8801 H         1 UNK         0.1562 
     84 H84        28.8894   23.2289    7.0065 H         1 UNK         0.0748 
     85 H85        28.0485   22.7955    5.5389 H         1 UNK         0.0748 
     86 H86        25.6391   25.2759    4.6850 H         1 UNK         0.0940 
     87 H87        27.0495   24.5101    4.0207 H         1 UNK         0.0940 
     88 H88        28.3095   26.7036    4.1817 H         1 UNK         0.0703 
     89 H89        26.4842   25.9407    2.2675 H         1 UNK         0.3081 
     90 H90        26.2196   26.7125    0.2764 H         1 UNK         0.0719 
     91 H91        25.7830   29.7469    0.3895 H         1 UNK         0.0809 
     92 H92        24.9842   28.6196   -0.7058 H         1 UNK         0.0809 
     93 H93        24.6710   28.5390    1.0182 H         1 UNK         0.0809 
     94 H94        27.4498   28.7544   -1.2051 H         1 UNK         0.2990 
     95 H95        28.9414   27.8354   -2.8256 H         1 UNK         0.0690 
     96 H96        31.2615   28.8594   -2.4870 H         1 UNK         0.0788 
     97 H97        31.1338   28.4972   -0.7667 H         1 UNK         0.0788 
     98 H98        30.0159   29.6285   -1.5163 H         1 UNK         0.0788 
     99 H99        30.5315   25.7758   -1.4866 H         1 UNK         0.2993 
    100 H100       30.3851   23.7972   -4.3720 H         1 UNK         0.0949 
    101 H101       32.7208   24.6848   -4.5504 H         1 UNK         0.0767 
    102 H102       32.8954   24.6159   -2.8017 H         1 UNK         0.0767 
    103 H103       32.6961   23.1309   -3.7332 H         1 UNK         0.0767 
    104 H104       31.1453   23.3214   -1.6307 H         1 UNK         0.3013 
    105 H105       25.0004   27.9289    3.8036 H         1 UNK         0.3121 
    106 H106       24.8411   29.4190    6.2349 H         1 UNK         0.0774 
    107 H107       22.9077   30.5225    5.0988 H         1 UNK         0.0815 
    108 H108       23.3656   29.7878    3.5692 H         1 UNK         0.0815 
    109 H109       22.8361   28.7786    4.9170 H         1 UNK         0.0815 
    110 H110       26.3090   30.1660    3.1009 H         1 UNK         0.2987 
    111 H111       26.7392   33.0175    3.7722 H         1 UNK         0.0949 
    112 H112       27.6057   31.3617    1.3357 H         1 UNK         0.0806 
    113 H113       26.1932   32.4127    1.4160 H         1 UNK         0.0806 
    114 H114       27.8061   33.0964    1.5317 H         1 UNK         0.0806 
    115 H115       28.4557   29.9427    3.5068 H         1 UNK         0.3010 
    116 H116       30.3072   29.0959    4.2998 H         1 UNK         0.0829 
    117 H117       29.6621   30.0683    6.5058 H         1 UNK         0.0813 
    118 H118       31.4059   29.9798    6.3260 H         1 UNK         0.0813 
    119 H119       30.5918   31.5234    6.1444 H         1 UNK         0.0813 
    120 H120       30.3411   31.0714    2.0181 H         1 UNK         0.3038 
    121 H121       32.8275   32.4079    1.9135 H         1 UNK         0.0769 
    122 H122       31.0491   31.3861   -0.3637 H         1 UNK         0.0811 
    123 H123       32.3492   32.5542   -0.5409 H         1 UNK         0.0811 
    124 H124       30.9379   32.9610    0.4197 H         1 UNK         0.0811 
    125 H125       32.1424   29.0334    1.4677 H         1 UNK         0.3204 
    126 H126       34.6253   28.3232    0.1288 H         1 UNK         0.0748 
    127 H127       32.7348   26.8380   -0.1695 H         1 UNK         0.0771 
    128 H128       33.8811   25.9725    0.8310 H         1 UNK         0.0771 
    129 H129       32.4584   26.7040    1.5626 H         1 UNK         0.0771 
    130 H130       33.8057   29.1543    3.4097 H         1 UNK         0.2980 
    131 H131       36.2766   27.8972    4.4975 H         1 UNK         0.0545 
    132 H132       35.9319   32.0249    4.5331 H         1 UNK         0.3459 
    133 H133       34.4880   31.0665    4.2646 H         1 UNK         0.3459 
    134 H134       33.8696   29.0504    6.0027 H         1 UNK         0.0616 
    135 H135       35.3189   28.4185    6.7379 H         1 UNK         0.0616 
    136 H136       31.7586   27.4976    6.0865 H         1 UNK         0.0634 
    137 H137       32.3150   27.6175    4.4323 H         1 UNK         0.0634 
@<TRIPOS>BOND
     1    1    2 1    
     2    1   72 1    
     3    1   73 1    
     4    1   74 1    
     5    2    3 2    
     6    2    4 am   BACKBONE|DICT|INTERRES
     7    4    5 1    
     8    4   75 1    
     9    5    6 1    
    10    5   35 1    
    11    5   76 1    
    12    6    7 1    
    13    6   77 1    
    14    6   78 1    
    15    7    8 1    
    16    8    9 1    
    17    8   79 1    
    18    8   80 1    
    19    9   10 ar   
    20    9   14 ar   
    21   10   11 ar   
    22   10   81 1    
    23   11   12 ar   
    24   11   71 1    
    25   12   13 ar   
    26   12   82 1    
    27   13   14 ar   
    28   13   15 1    
    29   14   83 1    
    30   15   16 1    
    31   15   84 1    
    32   15   85 1    
    33   16   17 1    
    34   17   18 1    
    35   17   86 1    
    36   17   87 1    
    37   18   19 1    
    38   18   37 1    
    39   18   88 1    
    40   19   20 am   BACKBONE|DICT|INTERRES
    41   19   89 1    
    42   20   21 2    
    43   20   22 1    
    44   22   23 1    
    45   22   24 1    
    46   22   90 1    
    47   23   91 1    
    48   23   92 1    
    49   23   93 1    
    50   24   25 am   BACKBONE|DICT|INTERRES
    51   24   94 1    
    52   25   26 2    
    53   25   27 1    
    54   27   28 1    
    55   27   29 1    
    56   27   95 1    
    57   28   96 1    
    58   28   97 1    
    59   28   98 1    
    60   29   30 am   BACKBONE|DICT|INTERRES
    61   29   99 1    
    62   30   31 2    
    63   30   32 1    
    64   32   33 1    
    65   32   34 1    
    66   32  100 1    
    67   33  101 1    
    68   33  102 1    
    69   33  103 1    
    70   34   35 am   BACKBONE|DICT|INTERRES
    71   34  104 1    
    72   35   36 2    
    73   37   38 2    
    74   37   39 am   BACKBONE|DICT|INTERRES
    75   39   40 1    
    76   39  105 1    
    77   40   41 1    
    78   40   42 1    
    79   40  106 1    
    80   41  107 1    
    81   41  108 1    
    82   41  109 1    
    83   42   43 2    
    84   42   44 am   BACKBONE|DICT|INTERRES
    85   44   45 1    
    86   44  110 1    
    87   45   46 1    
    88   45   47 1    
    89   45  111 1    
    90   46  112 1    
    91   46  113 1    
    92   46  114 1    
    93   47   48 2    
    94   47   49 am   BACKBONE|DICT|INTERRES
    95   49   50 1    
    96   49  115 1    
    97   50   51 1    
    98   50   52 1    
    99   50  116 1    
   100   51  117 1    
   101   51  118 1    
   102   51  119 1    
   103   52   53 2    
   104   52   54 am   BACKBONE|DICT|INTERRES
   105   54   55 1    
   106   54  120 1    
   107   55   56 1    
   108   55   57 1    
   109   55  121 1    
   110   56  122 1    
   111   56  123 1    
   112   56  124 1    
   113   57   58 2    
   114   57   59 am   BACKBONE|DICT|INTERRES
   115   59   60 1    
   116   59  125 1    
   117   60   61 1    
   118   60   62 1    
   119   60  126 1    
   120   61  127 1    
   121   61  128 1    
   122   61  129 1    
   123   62   63 2    
   124   62   64 am   BACKBONE|DICT|INTERRES
   125   64   65 1    
   126   64  130 1    
   127   65   66 1    
   128   65   69 1    
   129   65  131 1    
   130   66   67 am   BACKBONE|DICT|INTERRES
   131   66   68 2    
   132   67  132 1    
   133   67  133 1    
   134   69   70 1    
   135   69  134 1    
   136   69  135 1    
   137   70   71 1    
   138   71  136 1    
   139   71  137 1    
@<TRIPOS>SUBSTRUCTURE
     1 UNK         1 GROUP             0       ****    0 ROOT    
