@<TRIPOS>MOLECULE
3R136
137   139    1
SMALL
USER_CHARGES


@<TRIPOS>ATOM
      1 CA         27.5324   20.2401    4.6640 C.3       0 UNK        -0.1979 
      2 C          27.3411   20.8398    3.2790 C.2       0 UNK         0.4864 
      3 O          26.4166   20.4489    2.5651 O.2       0 UNK        -0.5359 
      4 N          28.2041   21.7905    2.8954 N.am      1 UNK        -0.4318 
      5 CA         28.1872   22.4619    1.5890 C.3       1 UNK         0.0824 
      6 C6         29.4749   23.2818    1.3388 C.3       12 UNK        -0.0944 
      7 S7         30.9851   22.2685    1.2636 S.3       12 UNK        -0.2672 
      8 C8         32.1936   23.3659    2.0830 C.3       12 UNK         0.0333 
      9 C9         32.2267   24.7904    1.5277 C.ar      12 UNK        -0.0807 
     10 C10        32.2768   25.8716    2.4128 C.ar      12 UNK        -0.0894 
     11 C11        32.3498   27.1839    1.9366 C.ar      12 UNK        -0.0804 
     12 C12        32.3341   27.4170    0.5587 C.ar      12 UNK        -0.0824 
     13 C13        32.2645   26.3482   -0.3404 C.ar      12 UNK        -0.0762 
     14 C14        32.2293   25.0378    0.1496 C.ar      12 UNK        -0.0782 
     15 C15        32.2558   26.6095   -1.8412 C.3       12 UNK         0.0230 
     16 S16        30.7236   27.4211   -2.4060 S.3       12 UNK        -0.2608 
     17 C17        29.4754   26.1132   -2.1486 C.3       12 UNK        -0.0989 
     18 CA         28.1215   26.6663   -1.6309 C.3       5 UNK         0.0716 
     19 N          27.0510   25.6770   -1.7636 N.am      5 UNK        -0.4135 
     20 C          26.3314   25.4935   -2.8790 C.2       4 UNK         0.5031 
     21 O          26.4635   26.1858   -3.8897 O.2       4 UNK        -0.5229 
     22 CA         25.3066   24.3480   -2.9124 C.3       4 UNK         0.0329 
     23 CB         25.9880   23.0455   -3.3648 C.3       4 UNK        -0.2001 
     24 N          24.6537   24.1179   -1.6225 N.am      4 UNK        -0.4303 
     25 C          23.3313   24.1572   -1.4062 C.2       3 UNK         0.5044 
     26 O          22.5058   24.4635   -2.2681 O.2       3 UNK        -0.5152 
     27 CA         22.8204   23.7626   -0.0046 C.3       3 UNK         0.0319 
     28 CB         22.2933   22.3183   -0.0168 C.3       3 UNK        -0.2001 
     29 N          23.8242   23.8901    1.0542 N.am      3 UNK        -0.4354 
     30 C          24.2848   25.0558    1.5257 C.2       2 UNK         0.4964 
     31 O          23.8515   26.1525    1.1709 O.2       2 UNK        -0.5047 
     32 CA         25.4267   25.0032    2.5582 C.3       2 UNK         0.0288 
     33 CB         24.8554   25.0770    3.9838 C.3       2 UNK        -0.2113 
     34 N          26.3592   23.8675    2.4782 N.am      2 UNK        -0.4145 
     35 C          26.9776   23.3944    1.3831 C.2       1 UNK         0.5006 
     36 O          26.6671   23.6935    0.2299 O.2       1 UNK        -0.5103 
     37 C          28.2004   27.1356   -0.1697 C.2       5 UNK         0.5055 
     38 O          28.0980   26.3188    0.7447 O.2       5 UNK        -0.5220 
     39 N          28.4027   28.4405    0.0230 N.am      6 UNK        -0.4450 
     40 CA         28.5962   29.0987    1.3088 C.3       6 UNK         0.0367 
     41 CB         27.2494   29.2613    2.0397 C.3       6 UNK        -0.1929 
     42 C          29.2490   30.4584    1.0386 C.2       6 UNK         0.5070 
     43 O          29.1611   30.9657   -0.0836 O.2       6 UNK        -0.5237 
     44 N          29.8780   31.0302    2.0672 N.am      7 UNK        -0.4739 
     45 CA         30.5517   32.3245    2.0343 C.3       7 UNK         0.0276 
     46 CB         31.9149   32.1991    1.3241 C.3       7 UNK        -0.1927 
     47 C          30.7428   32.8074    3.4744 C.2       7 UNK         0.5013 
     48 O          30.7836   31.9843    4.3936 O.2       7 UNK        -0.5193 
     49 N          30.9054   34.1249    3.6424 N.am      8 UNK        -0.4253 
     50 CA         31.2923   34.7612    4.9029 C.3       8 UNK         0.0242 
     51 CB         30.7594   36.2065    4.9226 C.3       8 UNK        -0.2000 
     52 C          32.8219   34.6899    5.0537 C.2       8 UNK         0.4948 
     53 O          33.5112   35.6955    4.8705 O.2       8 UNK        -0.5275 
     54 N          33.3249   33.4819    5.3207 N.am      9 UNK        -0.4246 
     55 CA         34.7416   33.1408    5.3855 C.3       9 UNK         0.0261 
     56 CB         35.2386   32.7844    3.9703 C.3       9 UNK        -0.1959 
     57 C          34.9391   31.9759    6.3632 C.2       9 UNK         0.5033 
     58 O          33.9593   31.3948    6.8401 O.2       9 UNK        -0.5390 
     59 N          36.2099   31.6373    6.6225 N.am      10 UNK        -0.4215 
     60 CA         36.6545   30.5859    7.5481 C.3       10 UNK         0.0240 
     61 CB         38.1914   30.5867    7.6051 C.3       10 UNK        -0.1982 
     62 C          36.1305   29.1683    7.2424 C.2       10 UNK         0.4970 
     63 O          36.1316   28.3279    8.1430 O.2       10 UNK        -0.4916 
     64 N          35.6827   28.9281    6.0032 N.am      11 UNK        -0.4279 
     65 CA         34.9615   27.7151    5.5958 C.3       11 UNK         0.1003 
     66 C          33.5460   27.5502    6.2265 C.2       11 UNK         0.5709 
     67 N          32.9433   28.5862    6.8006 N.am      11 UNK        -0.7358 
     68 O          32.9887   26.4558    6.1966 O.2       11 UNK        -0.4999 
     69 C69        34.9352   27.5565    4.0524 C.3       12 UNK        -0.0954 
     70 S70        34.1415   28.9412    3.1562 S.3       12 UNK        -0.2268 
     71 C71        32.4335   28.3497    2.9112 C.3       12 UNK         0.0203 
     72 H72        27.6996   19.1661    4.5872 H         1 UNK         0.0888 
     73 H73        26.6421   20.4041    5.2705 H         1 UNK         0.0888 
     74 H74        28.3834   20.6788    5.1848 H         1 UNK         0.0888 
     75 H75        28.9594   22.0558    3.5118 H         1 UNK         0.3017 
     76 H76        28.1196   21.6892    0.8199 H         1 UNK         0.0873 
     77 H77        29.4142   23.8173    0.3891 H         1 UNK         0.0745 
     78 H78        29.5846   24.0500    2.1073 H         1 UNK         0.0745 
     79 H79        31.9689   23.3783    3.1508 H         1 UNK         0.0705 
     80 H80        33.1877   22.9283    1.9837 H         1 UNK         0.0705 
     81 H81        32.2776   25.6925    3.4798 H         1 UNK         0.1334 
     82 H82        32.3774   28.4309    0.1845 H         1 UNK         0.1417 
     83 H83        32.1951   24.2065   -0.5413 H         1 UNK         0.1562 
     84 H84        32.3962   25.6834   -2.4010 H         1 UNK         0.0748 
     85 H85        33.1034   27.2483   -2.0938 H         1 UNK         0.0748 
     86 H86        29.8573   25.3442   -1.4760 H         1 UNK         0.0940 
     87 H87        29.3327   25.6192   -3.1110 H         1 UNK         0.0940 
     88 H88        27.8498   27.5360   -2.2340 H         1 UNK         0.0703 
     89 H89        26.9090   25.0781   -0.9518 H         1 UNK         0.3081 
     90 H90        24.5638   24.6146   -3.6671 H         1 UNK         0.0719 
     91 H91        26.7397   22.7135   -2.6472 H         1 UNK         0.0809 
     92 H92        25.2620   22.2412   -3.4848 H         1 UNK         0.0809 
     93 H93        26.4873   23.1770   -4.3258 H         1 UNK         0.0809 
     94 H94        25.2690   23.8806   -0.8459 H         1 UNK         0.2990 
     95 H95        21.9870   24.4261    0.2364 H         1 UNK         0.0690 
     96 H96        21.8531   22.0476    0.9431 H         1 UNK         0.0788 
     97 H97        23.0854   21.6018   -0.2386 H         1 UNK         0.0788 
     98 H98        21.5179   22.1915   -0.7738 H         1 UNK         0.0788 
     99 H99        24.2451   23.0370    1.3941 H         1 UNK         0.2993 
    100 H100       26.0263   25.8998    2.3919 H         1 UNK         0.0949 
    101 H101       24.1766   25.9245    4.0918 H         1 UNK         0.0767 
    102 H102       24.2962   24.1760    4.2395 H         1 UNK         0.0767 
    103 H103       25.6460   25.2046    4.7237 H         1 UNK         0.0767 
    104 H104       26.6945   23.5213    3.3646 H         1 UNK         0.3013 
    105 H105       28.5364   29.0603   -0.7684 H         1 UNK         0.3121 
    106 H106       29.2783   28.4977    1.9146 H         1 UNK         0.0774 
    107 H107       26.5428   29.8485    1.4519 H         1 UNK         0.0815 
    108 H108       27.3801   29.7679    2.9965 H         1 UNK         0.0815 
    109 H109       26.7885   28.2961    2.2484 H         1 UNK         0.0815 
    110 H110       29.8759   30.5937    2.9819 H         1 UNK         0.2987 
    111 H111       29.9206   33.0416    1.5041 H         1 UNK         0.0949 
    112 H112       32.5701   31.4910    1.8331 H         1 UNK         0.0806 
    113 H113       31.8016   31.8664    0.2923 H         1 UNK         0.0806 
    114 H114       32.4340   33.1580    1.2961 H         1 UNK         0.0806 
    115 H115       30.8912   34.7232    2.8285 H         1 UNK         0.3010 
    116 H116       30.8427   34.2259    5.7425 H         1 UNK         0.0829 
    117 H117       29.6713   36.2276    4.8590 H         1 UNK         0.0813 
    118 H118       31.0390   36.7112    5.8483 H         1 UNK         0.0813 
    119 H119       31.1545   36.7987    4.0961 H         1 UNK         0.0813 
    120 H120       32.6928   32.7058    5.4909 H         1 UNK         0.3038 
    121 H121       35.3049   33.9943    5.7690 H         1 UNK         0.0769 
    122 H122       34.6958   31.9333    3.5579 H         1 UNK         0.0811 
    123 H123       36.2992   32.5316    3.9658 H         1 UNK         0.0811 
    124 H124       35.1089   33.6216    3.2842 H         1 UNK         0.0811 
    125 H125       36.9434   32.1690    6.1754 H         1 UNK         0.3204 
    126 H126       36.2773   30.8515    8.5379 H         1 UNK         0.0748 
    127 H127       38.5582   29.8390    8.3101 H         1 UNK         0.0771 
    128 H128       38.6311   30.3602    6.6328 H         1 UNK         0.0771 
    129 H129       38.5776   31.5519    7.9335 H         1 UNK         0.0771 
    130 H130       35.7042   29.6742    5.3252 H         1 UNK         0.2980 
    131 H131       35.5406   26.8729    5.9794 H         1 UNK         0.0545 
    132 H132       32.0310   28.4599    7.2073 H         1 UNK         0.3459 
    133 H133       33.3764   29.5045    6.8116 H         1 UNK         0.3459 
    134 H134       35.9608   27.4887    3.6870 H         1 UNK         0.0616 
    135 H135       34.4770   26.6093    3.7723 H         1 UNK         0.0616 
    136 H136       31.9889   28.0829    3.8701 H         1 UNK         0.0634 
    137 H137       31.8404   29.1788    2.5287 H         1 UNK         0.0634 
@<TRIPOS>BOND
     1    1    2 1    
     2    1   72 1    
     3    1   73 1    
     4    1   74 1    
     5    2    3 2    
     6    2    4 am   BACKBONE|DICT|INTERRES
     7    4    5 1    
     8    4   75 1    
     9    5    6 1    
    10    5   35 1    
    11    5   76 1    
    12    6    7 1    
    13    6   77 1    
    14    6   78 1    
    15    7    8 1    
    16    8    9 1    
    17    8   79 1    
    18    8   80 1    
    19    9   10 ar   
    20    9   14 ar   
    21   10   11 ar   
    22   10   81 1    
    23   11   12 ar   
    24   11   71 1    
    25   12   13 ar   
    26   12   82 1    
    27   13   14 ar   
    28   13   15 1    
    29   14   83 1    
    30   15   16 1    
    31   15   84 1    
    32   15   85 1    
    33   16   17 1    
    34   17   18 1    
    35   17   86 1    
    36   17   87 1    
    37   18   19 1    
    38   18   37 1    
    39   18   88 1    
    40   19   20 am   BACKBONE|DICT|INTERRES
    41   19   89 1    
    42   20   21 2    
    43   20   22 1    
    44   22   23 1    
    45   22   24 1    
    46   22   90 1    
    47   23   91 1    
    48   23   92 1    
    49   23   93 1    
    50   24   25 am   BACKBONE|DICT|INTERRES
    51   24   94 1    
    52   25   26 2    
    53   25   27 1    
    54   27   28 1    
    55   27   29 1    
    56   27   95 1    
    57   28   96 1    
    58   28   97 1    
    59   28   98 1    
    60   29   30 am   BACKBONE|DICT|INTERRES
    61   29   99 1    
    62   30   31 2    
    63   30   32 1    
    64   32   33 1    
    65   32   34 1    
    66   32  100 1    
    67   33  101 1    
    68   33  102 1    
    69   33  103 1    
    70   34   35 am   BACKBONE|DICT|INTERRES
    71   34  104 1    
    72   35   36 2    
    73   37   38 2    
    74   37   39 am   BACKBONE|DICT|INTERRES
    75   39   40 1    
    76   39  105 1    
    77   40   41 1    
    78   40   42 1    
    79   40  106 1    
    80   41  107 1    
    81   41  108 1    
    82   41  109 1    
    83   42   43 2    
    84   42   44 am   BACKBONE|DICT|INTERRES
    85   44   45 1    
    86   44  110 1    
    87   45   46 1    
    88   45   47 1    
    89   45  111 1    
    90   46  112 1    
    91   46  113 1    
    92   46  114 1    
    93   47   48 2    
    94   47   49 am   BACKBONE|DICT|INTERRES
    95   49   50 1    
    96   49  115 1    
    97   50   51 1    
    98   50   52 1    
    99   50  116 1    
   100   51  117 1    
   101   51  118 1    
   102   51  119 1    
   103   52   53 2    
   104   52   54 am   BACKBONE|DICT|INTERRES
   105   54   55 1    
   106   54  120 1    
   107   55   56 1    
   108   55   57 1    
   109   55  121 1    
   110   56  122 1    
   111   56  123 1    
   112   56  124 1    
   113   57   58 2    
   114   57   59 am   BACKBONE|DICT|INTERRES
   115   59   60 1    
   116   59  125 1    
   117   60   61 1    
   118   60   62 1    
   119   60  126 1    
   120   61  127 1    
   121   61  128 1    
   122   61  129 1    
   123   62   63 2    
   124   62   64 am   BACKBONE|DICT|INTERRES
   125   64   65 1    
   126   64  130 1    
   127   65   66 1    
   128   65   69 1    
   129   65  131 1    
   130   66   67 am   BACKBONE|DICT|INTERRES
   131   66   68 2    
   132   67  132 1    
   133   67  133 1    
   134   69   70 1    
   135   69  134 1    
   136   69  135 1    
   137   70   71 1    
   138   71  136 1    
   139   71  137 1    
@<TRIPOS>SUBSTRUCTURE
     1 UNK         1 GROUP             0       ****    0 ROOT    
