@<TRIPOS>MOLECULE
3R136
137   139    1
SMALL
USER_CHARGES


@<TRIPOS>ATOM
      1 CA         27.7026   21.6130    2.1699 C.3       0 UNK        -0.1979 
      2 C          28.6376   21.8256    0.9886 C.2       0 UNK         0.4864 
      3 O          28.5217   21.1272   -0.0190 O.2       0 UNK        -0.5359 
      4 N          29.5581   22.7923    1.1023 N.am      1 UNK        -0.4318 
      5 CA         30.5100   23.1777    0.0511 C.3       1 UNK         0.0824 
      6 C6         31.6901   23.9926    0.6349 C.3       12 UNK        -0.0944 
      7 S7         32.8787   22.9798    1.5847 S.3       12 UNK        -0.2672 
      8 C8         32.0763   22.7045    3.2056 C.3       12 UNK         0.0333 
      9 C9         31.4639   23.9512    3.8378 C.ar      12 UNK        -0.0807 
     10 C10        32.1541   25.1682    3.8501 C.ar      12 UNK        -0.0894 
     11 C11        31.5783   26.3155    4.4111 C.ar      12 UNK        -0.0804 
     12 C12        30.3161   26.2154    5.0050 C.ar      12 UNK        -0.0824 
     13 C13        29.6215   25.0017    5.0205 C.ar      12 UNK        -0.0762 
     14 C14        30.2018   23.8743    4.4346 C.ar      12 UNK        -0.0782 
     15 C15        28.2610   24.8934    5.6988 C.3       12 UNK         0.0230 
     16 S16        26.8779   24.9890    4.5144 S.3       12 UNK        -0.2608 
     17 C17        26.8483   26.7709    4.1245 C.3       12 UNK        -0.0989 
     18 CA         26.6284   27.0282    2.6080 C.3       5 UNK         0.0716 
     19 N          25.2961   26.6346    2.1365 N.am      5 UNK        -0.4135 
     20 C          24.1265   27.2043    2.4707 C.2       4 UNK         0.5031 
     21 O          24.0225   28.1104    3.2995 O.2       4 UNK        -0.5229 
     22 CA         22.8576   26.6905    1.7509 C.3       4 UNK         0.0329 
     23 CB         21.7830   27.7895    1.6046 C.3       4 UNK        -0.2001 
     24 N          23.1170   26.0551    0.4503 N.am      4 UNK        -0.4303 
     25 C          23.7332   26.6062   -0.6052 C.2       3 UNK         0.5044 
     26 O          24.1567   27.7633   -0.6389 O.2       3 UNK        -0.5152 
     27 CA         23.9980   25.6740   -1.7986 C.3       3 UNK         0.0319 
     28 CB         23.2350   26.1530   -3.0440 C.3       3 UNK        -0.2001 
     29 N          25.4295   25.5920   -2.1047 N.am      3 UNK        -0.4354 
     30 C          26.3835   25.2235   -1.2386 C.2       2 UNK         0.4964 
     31 O          26.1642   24.8654   -0.0755 O.2       2 UNK        -0.5047 
     32 CA         27.8271   25.3034   -1.7440 C.3       2 UNK         0.0288 
     33 CB         28.3051   26.7639   -1.8163 C.3       2 UNK        -0.2113 
     34 N          28.6659   24.5603   -0.8135 N.am      2 UNK        -0.4145 
     35 C          29.8309   23.9659   -1.0917 C.2       1 UNK         0.5006 
     36 O          30.3761   24.0203   -2.1955 O.2       1 UNK        -0.5103 
     37 C          27.0169   28.4604    2.1697 C.2       5 UNK         0.5055 
     38 O          27.7897   29.1225    2.8660 O.2       5 UNK        -0.5220 
     39 N          26.5389   28.9110    0.9974 N.am      6 UNK        -0.4450 
     40 CA         26.9235   30.1794    0.3607 C.3       6 UNK         0.0367 
     41 CB         25.8279   30.5886   -0.6405 C.3       6 UNK        -0.1929 
     42 C          28.3231   30.1029   -0.2921 C.2       6 UNK         0.5070 
     43 O          28.4746   30.3991   -1.4786 O.2       6 UNK        -0.5237 
     44 N          29.3107   29.6621    0.4927 N.am      7 UNK        -0.4739 
     45 CA         30.7028   29.4442    0.1090 C.3       7 UNK         0.0276 
     46 CB         31.1245   28.0513    0.6200 C.3       7 UNK        -0.1927 
     47 C          31.5891   30.5888    0.6393 C.2       7 UNK         0.5013 
     48 O          31.0883   31.6859    0.9023 O.2       7 UNK        -0.5193 
     49 N          32.8977   30.3331    0.7700 N.am      8 UNK        -0.4253 
     50 CA         33.9411   31.2877    1.1644 C.3       8 UNK         0.0242 
     51 CB         35.3074   30.7201    0.7336 C.3       8 UNK        -0.2000 
     52 C          33.9130   31.6722    2.6607 C.2       8 UNK         0.4948 
     53 O          34.9290   31.5406    3.3483 O.2       8 UNK        -0.5275 
     54 N          32.7573   32.1583    3.1336 N.am      9 UNK        -0.4246 
     55 CA         32.4674   32.6302    4.4917 C.3       9 UNK         0.0261 
     56 CB         33.1994   33.9628    4.7719 C.3       9 UNK        -0.1959 
     57 C          32.7296   31.5416    5.5492 C.2       9 UNK         0.5033 
     58 O          31.8920   30.6551    5.7151 O.2       9 UNK        -0.5390 
     59 N          33.8734   31.6259    6.2405 N.am      10 UNK        -0.4215 
     60 CA         34.3313   30.6400    7.2212 C.3       10 UNK         0.0240 
     61 CB         35.3396   31.3098    8.1698 C.3       10 UNK        -0.1982 
     62 C          34.9511   29.3840    6.5803 C.2       10 UNK         0.4970 
     63 O          35.0175   28.3540    7.2518 O.2       10 UNK        -0.4916 
     64 N          35.4021   29.4868    5.3207 N.am      11 UNK        -0.4279 
     65 CA         36.0417   28.4181    4.5305 C.3       11 UNK         0.1003 
     66 C          37.4022   27.9054    5.0963 C.2       11 UNK         0.5709 
     67 N          38.0869   28.6595    5.9487 N.am      11 UNK        -0.7358 
     68 O          37.8678   26.8266    4.7354 O.2       11 UNK        -0.4999 
     69 C69        35.0613   27.2677    4.1594 C.3       12 UNK        -0.0954 
     70 S70        33.6315   27.8770    3.2069 S.3       12 UNK        -0.2268 
     71 C71        32.2708   27.6800    4.4086 C.3       12 UNK         0.0203 
     72 H72        27.7942   22.4059    2.9115 H         1 UNK         0.0888 
     73 H73        26.6676   21.5949    1.8293 H         1 UNK         0.0888 
     74 H74        27.9195   20.6619    2.6554 H         1 UNK         0.0888 
     75 H75        29.6160   23.3296    1.9554 H         1 UNK         0.3017 
     76 H76        30.9103   22.2661   -0.3983 H         1 UNK         0.0873 
     77 H77        31.3310   24.8299    1.2345 H         1 UNK         0.0745 
     78 H78        32.2729   24.4463   -0.1698 H         1 UNK         0.0745 
     79 H79        31.3244   21.9234    3.0858 H         1 UNK         0.0705 
     80 H80        32.8208   22.3005    3.8926 H         1 UNK         0.0705 
     81 H81        33.1355   25.2129    3.4013 H         1 UNK         0.1334 
     82 H82        29.8758   27.0910    5.4624 H         1 UNK         0.1417 
     83 H83        29.6712   22.9321    4.4591 H         1 UNK         0.1562 
     84 H84        28.1452   25.6683    6.4584 H         1 UNK         0.0748 
     85 H85        28.1976   23.9427    6.2304 H         1 UNK         0.0748 
     86 H86        27.7893   27.2062    4.4566 H         1 UNK         0.0940 
     87 H87        26.0765   27.2552    4.7240 H         1 UNK         0.0940 
     88 H88        27.3282   26.3877    2.0686 H         1 UNK         0.0703 
     89 H89        25.2951   25.8990    1.4369 H         1 UNK         0.3081 
     90 H90        22.4470   25.9105    2.3937 H         1 UNK         0.0719 
     91 H91        22.1503   28.6384    1.0266 H         1 UNK         0.0809 
     92 H92        20.8895   27.4084    1.1103 H         1 UNK         0.0809 
     93 H93        21.4732   28.1698    2.5789 H         1 UNK         0.0809 
     94 H94        22.8452   25.0834    0.3837 H         1 UNK         0.2990 
     95 H95        23.6549   24.6673   -1.5511 H         1 UNK         0.0690 
     96 H96        23.3743   25.4713   -3.8833 H         1 UNK         0.0788 
     97 H97        23.5595   27.1459   -3.3590 H         1 UNK         0.0788 
     98 H98        22.1634   26.2084   -2.8472 H         1 UNK         0.0788 
     99 H99        25.7062   25.9020   -3.0249 H         1 UNK         0.2993 
    100 H100       27.8769   24.8405   -2.7321 H         1 UNK         0.0949 
    101 H101       27.6921   27.3534   -2.4992 H         1 UNK         0.0767 
    102 H102       28.2546   27.2408   -0.8382 H         1 UNK         0.0767 
    103 H103       29.3349   26.8310   -2.1676 H         1 UNK         0.0767 
    104 H104       28.2348   24.4060    0.0892 H         1 UNK         0.3013 
    105 H105       25.8825   28.3366    0.4791 H         1 UNK         0.3121 
    106 H106       26.9720   30.9534    1.1296 H         1 UNK         0.0774 
    107 H107       24.8533   30.6580   -0.1570 H         1 UNK         0.0815 
    108 H108       26.0425   31.5637   -1.0796 H         1 UNK         0.0815 
    109 H109       25.7440   29.8724   -1.4591 H         1 UNK         0.0815 
    110 H110       29.0807   29.5007    1.4692 H         1 UNK         0.2987 
    111 H111       30.7939   29.4506   -0.9793 H         1 UNK         0.0949 
    112 H112       32.1387   27.7905    0.3169 H         1 UNK         0.0806 
    113 H113       31.0722   27.9910    1.7068 H         1 UNK         0.0806 
    114 H114       30.4741   27.2730    0.2220 H         1 UNK         0.0806 
    115 H115       33.2144   29.3922    0.5868 H         1 UNK         0.3010 
    116 H116       33.7788   32.2115    0.6052 H         1 UNK         0.0829 
    117 H117       35.3386   30.5271   -0.3389 H         1 UNK         0.0813 
    118 H118       36.1122   31.4221    0.9560 H         1 UNK         0.0813 
    119 H119       35.5361   29.7872    1.2507 H         1 UNK         0.0813 
    120 H120       31.9766   32.1726    2.4804 H         1 UNK         0.3038 
    121 H121       31.3959   32.8337    4.5243 H         1 UNK         0.0769 
    122 H122       34.2811   33.8790    4.6630 H         1 UNK         0.0811 
    123 H123       32.9927   34.3211    5.7814 H         1 UNK         0.0811 
    124 H124       32.8642   34.7398    4.0847 H         1 UNK         0.0811 
    125 H125       34.5097   32.3765    6.0125 H         1 UNK         0.3204 
    126 H126       33.4734   30.3137    7.8132 H         1 UNK         0.0748 
    127 H127       34.8919   32.1570    8.6898 H         1 UNK         0.0771 
    128 H128       35.6833   30.6095    8.9326 H         1 UNK         0.0771 
    129 H129       36.2206   31.6698    7.6369 H         1 UNK         0.0771 
    130 H130       35.2736   30.3611    4.8183 H         1 UNK         0.2980 
    131 H131       36.3220   28.9014    3.5941 H         1 UNK         0.0545 
    132 H132       38.9705   28.3276    6.3016 H         1 UNK         0.3459 
    133 H133       37.7273   29.5530    6.2421 H         1 UNK         0.3459 
    134 H134       35.5590   26.5243    3.5348 H         1 UNK         0.0616 
    135 H135       34.7246   26.7364    5.0508 H         1 UNK         0.0616 
    136 H136       32.6305   27.9027    5.4133 H         1 UNK         0.0634 
    137 H137       31.5287   28.4445    4.1745 H         1 UNK         0.0634 
@<TRIPOS>BOND
     1    1    2 1    
     2    1   72 1    
     3    1   73 1    
     4    1   74 1    
     5    2    3 2    
     6    2    4 am   BACKBONE|DICT|INTERRES
     7    4    5 1    
     8    4   75 1    
     9    5    6 1    
    10    5   35 1    
    11    5   76 1    
    12    6    7 1    
    13    6   77 1    
    14    6   78 1    
    15    7    8 1    
    16    8    9 1    
    17    8   79 1    
    18    8   80 1    
    19    9   10 ar   
    20    9   14 ar   
    21   10   11 ar   
    22   10   81 1    
    23   11   12 ar   
    24   11   71 1    
    25   12   13 ar   
    26   12   82 1    
    27   13   14 ar   
    28   13   15 1    
    29   14   83 1    
    30   15   16 1    
    31   15   84 1    
    32   15   85 1    
    33   16   17 1    
    34   17   18 1    
    35   17   86 1    
    36   17   87 1    
    37   18   19 1    
    38   18   37 1    
    39   18   88 1    
    40   19   20 am   BACKBONE|DICT|INTERRES
    41   19   89 1    
    42   20   21 2    
    43   20   22 1    
    44   22   23 1    
    45   22   24 1    
    46   22   90 1    
    47   23   91 1    
    48   23   92 1    
    49   23   93 1    
    50   24   25 am   BACKBONE|DICT|INTERRES
    51   24   94 1    
    52   25   26 2    
    53   25   27 1    
    54   27   28 1    
    55   27   29 1    
    56   27   95 1    
    57   28   96 1    
    58   28   97 1    
    59   28   98 1    
    60   29   30 am   BACKBONE|DICT|INTERRES
    61   29   99 1    
    62   30   31 2    
    63   30   32 1    
    64   32   33 1    
    65   32   34 1    
    66   32  100 1    
    67   33  101 1    
    68   33  102 1    
    69   33  103 1    
    70   34   35 am   BACKBONE|DICT|INTERRES
    71   34  104 1    
    72   35   36 2    
    73   37   38 2    
    74   37   39 am   BACKBONE|DICT|INTERRES
    75   39   40 1    
    76   39  105 1    
    77   40   41 1    
    78   40   42 1    
    79   40  106 1    
    80   41  107 1    
    81   41  108 1    
    82   41  109 1    
    83   42   43 2    
    84   42   44 am   BACKBONE|DICT|INTERRES
    85   44   45 1    
    86   44  110 1    
    87   45   46 1    
    88   45   47 1    
    89   45  111 1    
    90   46  112 1    
    91   46  113 1    
    92   46  114 1    
    93   47   48 2    
    94   47   49 am   BACKBONE|DICT|INTERRES
    95   49   50 1    
    96   49  115 1    
    97   50   51 1    
    98   50   52 1    
    99   50  116 1    
   100   51  117 1    
   101   51  118 1    
   102   51  119 1    
   103   52   53 2    
   104   52   54 am   BACKBONE|DICT|INTERRES
   105   54   55 1    
   106   54  120 1    
   107   55   56 1    
   108   55   57 1    
   109   55  121 1    
   110   56  122 1    
   111   56  123 1    
   112   56  124 1    
   113   57   58 2    
   114   57   59 am   BACKBONE|DICT|INTERRES
   115   59   60 1    
   116   59  125 1    
   117   60   61 1    
   118   60   62 1    
   119   60  126 1    
   120   61  127 1    
   121   61  128 1    
   122   61  129 1    
   123   62   63 2    
   124   62   64 am   BACKBONE|DICT|INTERRES
   125   64   65 1    
   126   64  130 1    
   127   65   66 1    
   128   65   69 1    
   129   65  131 1    
   130   66   67 am   BACKBONE|DICT|INTERRES
   131   66   68 2    
   132   67  132 1    
   133   67  133 1    
   134   69   70 1    
   135   69  134 1    
   136   69  135 1    
   137   70   71 1    
   138   71  136 1    
   139   71  137 1    
@<TRIPOS>SUBSTRUCTURE
     1 UNK         1 GROUP             0       ****    0 ROOT    
