@<TRIPOS>MOLECULE
3R136
137   139    1
SMALL
USER_CHARGES


@<TRIPOS>ATOM
      1 CA         27.3768   22.3115    0.7852 C.3       0 UNK        -0.1979 
      2 C          28.7352   22.9928    0.7407 C.2       0 UNK         0.4864 
      3 O          28.7994   24.2193    0.8510 O.2       0 UNK        -0.5359 
      4 N          29.8070   22.2007    0.5672 N.am      1 UNK        -0.4318 
      5 CA         31.2206   22.6126    0.5746 C.3       1 UNK         0.0824 
      6 C6         31.7034   23.0444    1.9865 C.3       12 UNK        -0.0944 
      7 S7         31.9048   21.6496    3.1494 S.3       12 UNK        -0.2672 
      8 C8         30.2339   21.3836    3.8435 C.3       12 UNK         0.0333 
      9 C9         29.5621   22.5895    4.5021 C.ar      12 UNK        -0.0807 
     10 C10        30.2783   23.6969    4.9737 C.ar      12 UNK        -0.0894 
     11 C11        29.6137   24.7946    5.5276 C.ar      12 UNK        -0.0804 
     12 C12        28.2240   24.7591    5.6712 C.ar      12 UNK        -0.0824 
     13 C13        27.4962   23.6588    5.2100 C.ar      12 UNK        -0.0762 
     14 C14        28.1706   22.5799    4.6331 C.ar      12 UNK        -0.0782 
     15 C15        25.9787   23.6378    5.2976 C.3       12 UNK         0.0230 
     16 S16        25.2252   24.1643    3.7248 S.3       12 UNK        -0.2608 
     17 C17        25.3515   25.9812    3.8396 C.3       12 UNK        -0.0989 
     18 CA         26.5864   26.5856    3.1085 C.3       5 UNK         0.0716 
     19 N          26.7053   26.1888    1.7007 N.am      5 UNK        -0.4135 
     20 C          25.8389   26.4444    0.7107 C.2       4 UNK         0.5031 
     21 O          24.7849   27.0670    0.8524 O.2       4 UNK        -0.5229 
     22 CA         26.2669   25.9390   -0.6796 C.3       4 UNK         0.0329 
     23 CB         25.3456   26.4177   -1.8222 C.3       4 UNK        -0.2001 
     24 N          27.6746   26.2597   -0.9483 N.am      4 UNK        -0.4303 
     25 C          28.2230   27.4799   -1.0553 C.2       3 UNK         0.5044 
     26 O          27.5777   28.5263   -1.0344 O.2       3 UNK        -0.5152 
     27 CA         29.7574   27.5609   -1.1474 C.3       3 UNK         0.0319 
     28 CB         30.3420   27.9755    0.2139 C.3       3 UNK        -0.2001 
     29 N          30.3940   26.3085   -1.5531 N.am      3 UNK        -0.4354 
     30 C          30.3185   25.7213   -2.7526 C.2       2 UNK         0.4964 
     31 O          29.7208   26.2081   -3.7123 O.2       2 UNK        -0.5047 
     32 CA         30.9971   24.3444   -2.9084 C.3       2 UNK         0.0288 
     33 CB         32.4385   24.4967   -3.4337 C.3       2 UNK        -0.2113 
     34 N          30.9480   23.4852   -1.7101 N.am      2 UNK        -0.4145 
     35 C          31.5298   23.6696   -0.5123 C.2       1 UNK         0.5006 
     36 O          32.2398   24.6422   -0.2475 O.2       1 UNK        -0.5103 
     37 C          26.6917   28.1117    3.3484 C.2       5 UNK         0.5055 
     38 O          26.3435   28.5675    4.4402 O.2       5 UNK        -0.5220 
     39 N          27.1676   28.8892    2.3632 N.am      6 UNK        -0.4450 
     40 CA         27.3748   30.3325    2.4893 C.3       6 UNK         0.0367 
     41 CB         27.4560   30.9773    1.0947 C.3       6 UNK        -0.1929 
     42 C          28.6287   30.6284    3.3266 C.2       6 UNK         0.5070 
     43 O          29.7297   30.6996    2.7810 O.2       6 UNK        -0.5237 
     44 N          28.4374   30.8195    4.6378 N.am      7 UNK        -0.4739 
     45 CA         29.4894   31.1043    5.6235 C.3       7 UNK         0.0276 
     46 CB         28.8792   31.0365    7.0330 C.3       7 UNK        -0.1927 
     47 C          30.2360   32.4387    5.4130 C.2       7 UNK         0.5013 
     48 O          31.2717   32.6524    6.0433 O.2       7 UNK        -0.5193 
     49 N          29.7089   33.3064    4.5374 N.am      8 UNK        -0.4253 
     50 CA         30.3738   34.5137    4.0436 C.3       8 UNK         0.0242 
     51 CB         29.3254   35.4317    3.3932 C.3       8 UNK        -0.2000 
     52 C          31.5160   34.2129    3.0513 C.2       8 UNK         0.4948 
     53 O          32.3880   35.0658    2.8755 O.2       8 UNK        -0.5275 
     54 N          31.4954   33.0297    2.4196 N.am      9 UNK        -0.4246 
     55 CA         32.5615   32.5148    1.5594 C.3       9 UNK         0.0261 
     56 CB         31.9206   31.6920    0.4239 C.3       9 UNK        -0.1959 
     57 C          33.5557   31.6793    2.3901 C.2       9 UNK         0.5033 
     58 O          33.5109   31.7032    3.6223 O.2       9 UNK        -0.5390 
     59 N          34.4471   30.9479    1.7050 N.am      10 UNK        -0.4215 
     60 CA         35.4347   30.0527    2.3212 C.3       10 UNK         0.0240 
     61 CB         36.3826   29.5083    1.2398 C.3       10 UNK        -0.1982 
     62 C          34.8038   28.8965    3.1208 C.2       10 UNK         0.4970 
     63 O          35.3353   28.5358    4.1715 O.2       10 UNK        -0.4916 
     64 N          33.6823   28.3611    2.6150 N.am      11 UNK        -0.4279 
     65 CA         32.8708   27.3037    3.2418 C.3       11 UNK         0.1003 
     66 C          33.6362   25.9629    3.4707 C.2       11 UNK         0.5709 
     67 N          34.5616   25.5965    2.5911 N.am      11 UNK        -0.7358 
     68 O          33.4053   25.2476    4.4409 O.2       11 UNK        -0.4999 
     69 C69        32.0970   27.8325    4.4903 C.3       12 UNK        -0.0954 
     70 S70        30.3720   27.2391    4.5436 S.3       12 UNK        -0.2268 
     71 C71        30.3948   26.0397    5.9147 C.3       12 UNK         0.0203 
     72 H72        27.4671   21.2319    0.9030 H         1 UNK         0.0888 
     73 H73        26.7965   22.6923    1.6244 H         1 UNK         0.0888 
     74 H74        26.8241   22.5101   -0.1320 H         1 UNK         0.0888 
     75 H75        29.6597   21.2068    0.4585 H         1 UNK         0.3017 
     76 H76        31.7995   21.7351    0.2821 H         1 UNK         0.0873 
     77 H77        32.6931   23.4989    1.9300 H         1 UNK         0.0745 
     78 H78        31.0527   23.8140    2.4016 H         1 UNK         0.0745 
     79 H79        30.3038   20.5894    4.5877 H         1 UNK         0.0705 
     80 H80        29.5951   20.9952    3.0501 H         1 UNK         0.0705 
     81 H81        31.3538   23.7289    4.8772 H         1 UNK         0.1334 
     82 H82        27.7070   25.6088    6.0960 H         1 UNK         0.1417 
     83 H83        27.6029   21.7342    4.2686 H         1 UNK         0.1562 
     84 H84        25.6249   24.2637    6.1183 H         1 UNK         0.0748 
     85 H85        25.6413   22.6255    5.5252 H         1 UNK         0.0748 
     86 H86        25.3554   26.2557    4.8957 H         1 UNK         0.0940 
     87 H87        24.4310   26.4048    3.4346 H         1 UNK         0.0940 
     88 H88        27.4812   26.1771    3.5733 H         1 UNK         0.0703 
     89 H89        27.5286   25.6360    1.4744 H         1 UNK         0.3081 
     90 H90        26.2008   24.8513   -0.6421 H         1 UNK         0.0719 
     91 H91        25.6846   26.0430   -2.7879 H         1 UNK         0.0809 
     92 H92        25.2985   27.5053   -1.8818 H         1 UNK         0.0809 
     93 H93        24.3263   26.0591   -1.6740 H         1 UNK         0.0809 
     94 H94        28.3156   25.4788   -0.8764 H         1 UNK         0.2990 
     95 H95        30.0059   28.3260   -1.8856 H         1 UNK         0.0690 
     96 H96        31.4220   28.1092    0.1563 H         1 UNK         0.0788 
     97 H97        30.1355   27.2301    0.9838 H         1 UNK         0.0788 
     98 H98        29.9187   28.9192    0.5566 H         1 UNK         0.0788 
     99 H99        30.9616   25.8361   -0.8536 H         1 UNK         0.2993 
    100 H100       30.4279   23.8119   -3.6724 H         1 UNK         0.0949 
    101 H101       33.0722   25.0475   -2.7380 H         1 UNK         0.0767 
    102 H102       32.9002   23.5255   -3.6116 H         1 UNK         0.0767 
    103 H103       32.4512   25.0397   -4.3797 H         1 UNK         0.0767 
    104 H104       30.3561   22.6709   -1.8010 H         1 UNK         0.3013 
    105 H105       27.4265   28.4676    1.4827 H         1 UNK         0.3121 
    106 H106       26.5091   30.7668    2.9946 H         1 UNK         0.0774 
    107 H107       27.5571   32.0603    1.1734 H         1 UNK         0.0815 
    108 H108       28.3103   30.6165    0.5226 H         1 UNK         0.0815 
    109 H109       26.5569   30.7766    0.5118 H         1 UNK         0.0815 
    110 H110       27.5038   30.6827    5.0027 H         1 UNK         0.2987 
    111 H111       30.2374   30.3134    5.5375 H         1 UNK         0.0949 
    112 H112       28.4360   30.0593    7.2262 H         1 UNK         0.0806 
    113 H113       29.6397   31.2008    7.7978 H         1 UNK         0.0806 
    114 H114       28.1058   31.7925    7.1743 H         1 UNK         0.0806 
    115 H115       28.8402   33.0496    4.0927 H         1 UNK         0.3010 
    116 H116       30.8098   35.0391    4.8961 H         1 UNK         0.0829 
    117 H117       28.5444   35.7079    4.1019 H         1 UNK         0.0813 
    118 H118       29.7831   36.3574    3.0415 H         1 UNK         0.0813 
    119 H119       28.8495   34.9572    2.5341 H         1 UNK         0.0813 
    120 H120       30.7819   32.3506    2.6700 H         1 UNK         0.3038 
    121 H121       33.1114   33.3471    1.1152 H         1 UNK         0.0769 
    122 H122       31.1246   32.2506   -0.0688 H         1 UNK         0.0811 
    123 H123       31.4896   30.7624    0.7952 H         1 UNK         0.0811 
    124 H124       32.6475   31.4334   -0.3462 H         1 UNK         0.0811 
    125 H125       34.4434   30.9967    0.6964 H         1 UNK         0.3204 
    126 H126       36.0252   30.6478    3.0214 H         1 UNK         0.0748 
    127 H127       37.1368   28.8522    1.6771 H         1 UNK         0.0771 
    128 H128       35.8485   28.9317    0.4835 H         1 UNK         0.0771 
    129 H129       36.9137   30.3154    0.7345 H         1 UNK         0.0771 
    130 H130       33.3346   28.7213    1.7399 H         1 UNK         0.2980 
    131 H131       32.1337   27.0550    2.4783 H         1 UNK         0.0545 
    132 H132       35.0627   24.7354    2.7378 H         1 UNK         0.3459 
    133 H133       34.7560   26.1635    1.7821 H         1 UNK         0.3459 
    134 H134       32.6213   27.6110    5.4210 H         1 UNK         0.0616 
    135 H135       32.0298   28.9214    4.4539 H         1 UNK         0.0616 
    136 H136       29.9609   26.5012    6.8027 H         1 UNK         0.0634 
    137 H137       31.4185   25.7702    6.1760 H         1 UNK         0.0634 
@<TRIPOS>BOND
     1    1    2 1    
     2    1   72 1    
     3    1   73 1    
     4    1   74 1    
     5    2    3 2    
     6    2    4 am   BACKBONE|DICT|INTERRES
     7    4    5 1    
     8    4   75 1    
     9    5    6 1    
    10    5   35 1    
    11    5   76 1    
    12    6    7 1    
    13    6   77 1    
    14    6   78 1    
    15    7    8 1    
    16    8    9 1    
    17    8   79 1    
    18    8   80 1    
    19    9   10 ar   
    20    9   14 ar   
    21   10   11 ar   
    22   10   81 1    
    23   11   12 ar   
    24   11   71 1    
    25   12   13 ar   
    26   12   82 1    
    27   13   14 ar   
    28   13   15 1    
    29   14   83 1    
    30   15   16 1    
    31   15   84 1    
    32   15   85 1    
    33   16   17 1    
    34   17   18 1    
    35   17   86 1    
    36   17   87 1    
    37   18   19 1    
    38   18   37 1    
    39   18   88 1    
    40   19   20 am   BACKBONE|DICT|INTERRES
    41   19   89 1    
    42   20   21 2    
    43   20   22 1    
    44   22   23 1    
    45   22   24 1    
    46   22   90 1    
    47   23   91 1    
    48   23   92 1    
    49   23   93 1    
    50   24   25 am   BACKBONE|DICT|INTERRES
    51   24   94 1    
    52   25   26 2    
    53   25   27 1    
    54   27   28 1    
    55   27   29 1    
    56   27   95 1    
    57   28   96 1    
    58   28   97 1    
    59   28   98 1    
    60   29   30 am   BACKBONE|DICT|INTERRES
    61   29   99 1    
    62   30   31 2    
    63   30   32 1    
    64   32   33 1    
    65   32   34 1    
    66   32  100 1    
    67   33  101 1    
    68   33  102 1    
    69   33  103 1    
    70   34   35 am   BACKBONE|DICT|INTERRES
    71   34  104 1    
    72   35   36 2    
    73   37   38 2    
    74   37   39 am   BACKBONE|DICT|INTERRES
    75   39   40 1    
    76   39  105 1    
    77   40   41 1    
    78   40   42 1    
    79   40  106 1    
    80   41  107 1    
    81   41  108 1    
    82   41  109 1    
    83   42   43 2    
    84   42   44 am   BACKBONE|DICT|INTERRES
    85   44   45 1    
    86   44  110 1    
    87   45   46 1    
    88   45   47 1    
    89   45  111 1    
    90   46  112 1    
    91   46  113 1    
    92   46  114 1    
    93   47   48 2    
    94   47   49 am   BACKBONE|DICT|INTERRES
    95   49   50 1    
    96   49  115 1    
    97   50   51 1    
    98   50   52 1    
    99   50  116 1    
   100   51  117 1    
   101   51  118 1    
   102   51  119 1    
   103   52   53 2    
   104   52   54 am   BACKBONE|DICT|INTERRES
   105   54   55 1    
   106   54  120 1    
   107   55   56 1    
   108   55   57 1    
   109   55  121 1    
   110   56  122 1    
   111   56  123 1    
   112   56  124 1    
   113   57   58 2    
   114   57   59 am   BACKBONE|DICT|INTERRES
   115   59   60 1    
   116   59  125 1    
   117   60   61 1    
   118   60   62 1    
   119   60  126 1    
   120   61  127 1    
   121   61  128 1    
   122   61  129 1    
   123   62   63 2    
   124   62   64 am   BACKBONE|DICT|INTERRES
   125   64   65 1    
   126   64  130 1    
   127   65   66 1    
   128   65   69 1    
   129   65  131 1    
   130   66   67 am   BACKBONE|DICT|INTERRES
   131   66   68 2    
   132   67  132 1    
   133   67  133 1    
   134   69   70 1    
   135   69  134 1    
   136   69  135 1    
   137   70   71 1    
   138   71  136 1    
   139   71  137 1    
@<TRIPOS>SUBSTRUCTURE
     1 UNK         1 GROUP             0       ****    0 ROOT    
