@<TRIPOS>MOLECULE
3R136
137   139    1
SMALL
USER_CHARGES


@<TRIPOS>ATOM
      1 CA         31.3349   21.4408    4.4391 C.3       0 UNK        -0.1979 
      2 C          30.1828   20.8213    3.6605 C.2       0 UNK         0.4864 
      3 O          29.5147   19.9170    4.1649 O.2       0 UNK        -0.5359 
      4 N          29.9538   21.2980    2.4314 N.am      1 UNK        -0.4318 
      5 CA         28.8329   20.9182    1.5655 C.3       1 UNK         0.0824 
      6 C6         29.1221   21.2778    0.0821 C.3       12 UNK        -0.0944 
      7 S7         29.5757   23.0313   -0.1742 S.3       12 UNK        -0.2672 
      8 C8         31.3386   22.8807   -0.5963 C.3       12 UNK         0.0333 
      9 C9         32.0847   24.1693   -0.2924 C.ar      12 UNK        -0.0807 
     10 C10        32.9056   24.2564    0.8353 C.ar      12 UNK        -0.0894 
     11 C11        33.5986   25.4378    1.1270 C.ar      12 UNK        -0.0804 
     12 C12        33.4675   26.5326    0.2648 C.ar      12 UNK        -0.0824 
     13 C13        32.6613   26.4529   -0.8758 C.ar      12 UNK        -0.0762 
     14 C14        31.9702   25.2685   -1.1469 C.ar      12 UNK        -0.0782 
     15 C15        32.5771   27.6214   -1.8491 C.3       12 UNK         0.0230 
     16 S16        30.9101   28.3492   -1.9310 S.3       12 UNK        -0.2608 
     17 C17        30.8728   29.3664   -0.4194 C.3       12 UNK        -0.0989 
     18 CA         29.4919   29.3000    0.2823 C.3       5 UNK         0.0716 
     19 N          29.1714   27.9586    0.7831 N.am      5 UNK        -0.4135 
     20 C          29.6671   27.3627    1.8781 C.2       4 UNK         0.5031 
     21 O          30.5383   27.8637    2.5927 O.2       4 UNK        -0.5229 
     22 CA         29.0895   25.9867    2.2681 C.3       4 UNK         0.0329 
     23 CB         28.7167   25.9361    3.7647 C.3       4 UNK        -0.2001 
     24 N          27.9565   25.5121    1.4590 N.am      4 UNK        -0.4303 
     25 C          26.7353   26.0594    1.3335 C.2       3 UNK         0.5044 
     26 O          26.4118   27.1539    1.7946 O.2       3 UNK        -0.5152 
     27 CA         25.6993   25.2186    0.5815 C.3       3 UNK         0.0319 
     28 CB         26.0080   25.1762   -0.9285 C.3       3 UNK        -0.2001 
     29 N          25.6839   23.8796    1.1646 N.am      3 UNK        -0.4354 
     30 C          24.7848   22.9120    0.9658 C.2       2 UNK         0.4964 
     31 O          23.8135   23.0245    0.2158 O.2       2 UNK        -0.5047 
     32 CA         25.0303   21.5928    1.7353 C.3       2 UNK         0.0288 
     33 CB         24.0005   20.5013    1.3859 C.3       2 UNK        -0.2113 
     34 N          26.3808   21.0564    1.5181 N.am      2 UNK        -0.4145 
     35 C          27.5092   21.5483    2.0504 C.2       1 UNK         0.5006 
     36 O          27.5229   22.5045    2.8321 O.2       1 UNK        -0.5103 
     37 C          29.3305   30.3578    1.3949 C.2       5 UNK         0.5055 
     38 O          30.2777   31.0871    1.6964 O.2       5 UNK        -0.5220 
     39 N          28.1460   30.3814    2.0251 N.am      6 UNK        -0.4450 
     40 CA         27.8160   31.1821    3.2128 C.3       6 UNK         0.0367 
     41 CB         26.3692   30.8806    3.6336 C.3       6 UNK        -0.1929 
     42 C          28.0299   32.6999    3.0701 C.2       6 UNK         0.5070 
     43 O          28.2680   33.3732    4.0725 O.2       6 UNK        -0.5237 
     44 N          27.9569   33.2078    1.8346 N.am      7 UNK        -0.4739 
     45 CA         28.1940   34.6103    1.4941 C.3       7 UNK         0.0276 
     46 CB         27.4950   34.9123    0.1572 C.3       7 UNK        -0.1927 
     47 C          29.6850   34.9965    1.4189 C.2       7 UNK         0.5013 
     48 O          29.9684   36.1912    1.3135 O.2       7 UNK        -0.5193 
     49 N          30.6035   34.0176    1.4351 N.am      8 UNK        -0.4253 
     50 CA         32.0352   34.2395    1.2178 C.3       8 UNK         0.0242 
     51 CB         32.3945   33.9074   -0.2428 C.3       8 UNK        -0.2000 
     52 C          32.9100   33.4525    2.2013 C.2       8 UNK         0.4948 
     53 O          33.6783   34.0661    2.9433 O.2       8 UNK        -0.5275 
     54 N          32.8133   32.1180    2.1669 N.am      9 UNK        -0.4246 
     55 CA         33.6627   31.2094    2.9377 C.3       9 UNK         0.0261 
     56 CB         33.9436   29.9368    2.1197 C.3       9 UNK        -0.1959 
     57 C          33.0316   30.8393    4.2841 C.2       9 UNK         0.5033 
     58 O          33.7309   30.8790    5.2971 O.2       9 UNK        -0.5390 
     59 N          31.7408   30.4667    4.2598 N.am      10 UNK        -0.4215 
     60 CA         30.9636   29.9094    5.3759 C.3       10 UNK         0.0240 
     61 CB         30.6456   31.0012    6.4185 C.3       10 UNK        -0.1982 
     62 C          31.6361   28.6603    5.9797 C.2       10 UNK         0.4970 
     63 O          32.0311   28.6664    7.1475 O.2       10 UNK        -0.4916 
     64 N          31.7853   27.6341    5.1333 N.am      11 UNK        -0.4279 
     65 CA         32.4325   26.3443    5.4171 C.3       11 UNK         0.1003 
     66 C          31.8811   25.6062    6.6702 C.2       11 UNK         0.5709 
     67 N          32.7328   24.8915    7.3928 N.am      11 UNK        -0.7358 
     68 O          30.6866   25.6351    6.9607 O.2       11 UNK        -0.4999 
     69 C69        32.3781   25.4251    4.1644 C.3       12 UNK        -0.0954 
     70 S70        33.9659   24.6094    3.8130 S.3       12 UNK        -0.2268 
     71 C71        34.5207   25.5468    2.3442 C.3       12 UNK         0.0203 
     72 H72        30.9521   22.0184    5.2803 H         1 UNK         0.0888 
     73 H73        31.9891   20.6615    4.8290 H         1 UNK         0.0888 
     74 H74        31.9362   22.1038    3.8173 H         1 UNK         0.0888 
     75 H75        30.5047   22.0707    2.0883 H         1 UNK         0.3017 
     76 H76        28.7122   19.8346    1.6317 H         1 UNK         0.0873 
     77 H77        28.2634   21.0513   -0.5526 H         1 UNK         0.0745 
     78 H78        29.9223   20.6382   -0.2932 H         1 UNK         0.0745 
     79 H79        31.7851   22.0536   -0.0421 H         1 UNK         0.0705 
     80 H80        31.4368   22.6312   -1.6538 H         1 UNK         0.0705 
     81 H81        33.0086   23.3981    1.4840 H         1 UNK         0.1334 
     82 H82        34.0126   27.4431    0.4709 H         1 UNK         0.1417 
     83 H83        31.3449   25.2014   -2.0271 H         1 UNK         0.1562 
     84 H84        32.8496   27.2668   -2.8442 H         1 UNK         0.0748 
     85 H85        33.3004   28.3987   -1.5971 H         1 UNK         0.0748 
     86 H86        31.1173   30.3900   -0.7093 H         1 UNK         0.0940 
     87 H87        31.6581   29.0406    0.2611 H         1 UNK         0.0940 
     88 H88        28.7312   29.5416   -0.4618 H         1 UNK         0.0703 
     89 H89        28.4557   27.4621    0.2748 H         1 UNK         0.3081 
     90 H90        29.8965   25.2714    2.1020 H         1 UNK         0.0719 
     91 H91        29.5699   26.1661    4.3994 H         1 UNK         0.0809 
     92 H92        27.9333   26.6530    4.0119 H         1 UNK         0.0809 
     93 H93        28.3672   24.9441    4.0512 H         1 UNK         0.0809 
     94 H94        28.1307   24.6400    0.9749 H         1 UNK         0.2990 
     95 H95        24.7184   25.6738    0.7330 H         1 UNK         0.0690 
     96 H96        25.2184   24.6684   -1.4823 H         1 UNK         0.0788 
     97 H97        26.9449   24.6593   -1.1393 H         1 UNK         0.0788 
     98 H98        26.0885   26.1835   -1.3393 H         1 UNK         0.0788 
     99 H99        26.4190   23.6836    1.8416 H         1 UNK         0.2993 
    100 H100       24.9185   21.8234    2.7972 H         1 UNK         0.0949 
    101 H101       24.1596   19.6008    1.9797 H         1 UNK         0.0767 
    102 H102       22.9841   20.8426    1.5875 H         1 UNK         0.0767 
    103 H103       24.0489   20.2226    0.3324 H         1 UNK         0.0767 
    104 H104       26.4511   20.2959    0.8571 H         1 UNK         0.3013 
    105 H105       27.4425   29.7171    1.7307 H         1 UNK         0.3121 
    106 H106       28.4719   30.8533    4.0172 H         1 UNK         0.0774 
    107 H107       26.1010   31.4317    4.5363 H         1 UNK         0.0815 
    108 H108       25.6570   31.1609    2.8566 H         1 UNK         0.0815 
    109 H109       26.2309   29.8210    3.8505 H         1 UNK         0.0815 
    110 H110       27.7538   32.5792    1.0710 H         1 UNK         0.2987 
    111 H111       27.7396   35.2380    2.2642 H         1 UNK         0.0949 
    112 H112       27.9107   34.3200   -0.6590 H         1 UNK         0.0806 
    113 H113       26.4257   34.7070    0.2123 H         1 UNK         0.0806 
    114 H114       27.6056   35.9631   -0.1147 H         1 UNK         0.0806 
    115 H115       30.3026   33.0578    1.5744 H         1 UNK         0.3010 
    116 H116       32.2766   35.2922    1.3816 H         1 UNK         0.0829 
    117 H117       31.8811   34.5753   -0.9348 H         1 UNK         0.0813 
    118 H118       33.4650   34.0209   -0.4192 H         1 UNK         0.0813 
    119 H119       32.1246   32.8845   -0.5075 H         1 UNK         0.0813 
    120 H120       32.0679   31.6969    1.6215 H         1 UNK         0.3038 
    121 H121       34.6226   31.6929    3.1337 H         1 UNK         0.0769 
    122 H122       34.6894   29.3167    2.6188 H         1 UNK         0.0811 
    123 H123       34.3293   30.1737    1.1280 H         1 UNK         0.0811 
    124 H124       33.0501   29.3244    2.0008 H         1 UNK         0.0811 
    125 H125       31.2665   30.4823    3.3625 H         1 UNK         0.3204 
    126 H126       30.0194   29.5607    4.9585 H         1 UNK         0.0748 
    127 H127       30.0114   30.6075    7.2137 H         1 UNK         0.0771 
    128 H128       31.5496   31.3923    6.8864 H         1 UNK         0.0771 
    129 H129       30.1153   31.8384    5.9641 H         1 UNK         0.0771 
    130 H130       31.4060   27.7367    4.1938 H         1 UNK         0.2980 
    131 H131       33.4725   26.6028    5.6250 H         1 UNK         0.0545 
    132 H132       33.7076   24.8361    7.1417 H         1 UNK         0.3459 
    133 H133       32.3927   24.3916    8.1990 H         1 UNK         0.3459 
    134 H134       32.1022   25.9950    3.2799 H         1 UNK         0.0616 
    135 H135       31.6056   24.6582    4.2476 H         1 UNK         0.0616 
    136 H136       35.5115   25.1908    2.0601 H         1 UNK         0.0634 
    137 H137       34.6376   26.5919    2.6355 H         1 UNK         0.0634 
@<TRIPOS>BOND
     1    1    2 1    
     2    1   72 1    
     3    1   73 1    
     4    1   74 1    
     5    2    3 2    
     6    2    4 am   BACKBONE|DICT|INTERRES
     7    4    5 1    
     8    4   75 1    
     9    5    6 1    
    10    5   35 1    
    11    5   76 1    
    12    6    7 1    
    13    6   77 1    
    14    6   78 1    
    15    7    8 1    
    16    8    9 1    
    17    8   79 1    
    18    8   80 1    
    19    9   10 ar   
    20    9   14 ar   
    21   10   11 ar   
    22   10   81 1    
    23   11   12 ar   
    24   11   71 1    
    25   12   13 ar   
    26   12   82 1    
    27   13   14 ar   
    28   13   15 1    
    29   14   83 1    
    30   15   16 1    
    31   15   84 1    
    32   15   85 1    
    33   16   17 1    
    34   17   18 1    
    35   17   86 1    
    36   17   87 1    
    37   18   19 1    
    38   18   37 1    
    39   18   88 1    
    40   19   20 am   BACKBONE|DICT|INTERRES
    41   19   89 1    
    42   20   21 2    
    43   20   22 1    
    44   22   23 1    
    45   22   24 1    
    46   22   90 1    
    47   23   91 1    
    48   23   92 1    
    49   23   93 1    
    50   24   25 am   BACKBONE|DICT|INTERRES
    51   24   94 1    
    52   25   26 2    
    53   25   27 1    
    54   27   28 1    
    55   27   29 1    
    56   27   95 1    
    57   28   96 1    
    58   28   97 1    
    59   28   98 1    
    60   29   30 am   BACKBONE|DICT|INTERRES
    61   29   99 1    
    62   30   31 2    
    63   30   32 1    
    64   32   33 1    
    65   32   34 1    
    66   32  100 1    
    67   33  101 1    
    68   33  102 1    
    69   33  103 1    
    70   34   35 am   BACKBONE|DICT|INTERRES
    71   34  104 1    
    72   35   36 2    
    73   37   38 2    
    74   37   39 am   BACKBONE|DICT|INTERRES
    75   39   40 1    
    76   39  105 1    
    77   40   41 1    
    78   40   42 1    
    79   40  106 1    
    80   41  107 1    
    81   41  108 1    
    82   41  109 1    
    83   42   43 2    
    84   42   44 am   BACKBONE|DICT|INTERRES
    85   44   45 1    
    86   44  110 1    
    87   45   46 1    
    88   45   47 1    
    89   45  111 1    
    90   46  112 1    
    91   46  113 1    
    92   46  114 1    
    93   47   48 2    
    94   47   49 am   BACKBONE|DICT|INTERRES
    95   49   50 1    
    96   49  115 1    
    97   50   51 1    
    98   50   52 1    
    99   50  116 1    
   100   51  117 1    
   101   51  118 1    
   102   51  119 1    
   103   52   53 2    
   104   52   54 am   BACKBONE|DICT|INTERRES
   105   54   55 1    
   106   54  120 1    
   107   55   56 1    
   108   55   57 1    
   109   55  121 1    
   110   56  122 1    
   111   56  123 1    
   112   56  124 1    
   113   57   58 2    
   114   57   59 am   BACKBONE|DICT|INTERRES
   115   59   60 1    
   116   59  125 1    
   117   60   61 1    
   118   60   62 1    
   119   60  126 1    
   120   61  127 1    
   121   61  128 1    
   122   61  129 1    
   123   62   63 2    
   124   62   64 am   BACKBONE|DICT|INTERRES
   125   64   65 1    
   126   64  130 1    
   127   65   66 1    
   128   65   69 1    
   129   65  131 1    
   130   66   67 am   BACKBONE|DICT|INTERRES
   131   66   68 2    
   132   67  132 1    
   133   67  133 1    
   134   69   70 1    
   135   69  134 1    
   136   69  135 1    
   137   70   71 1    
   138   71  136 1    
   139   71  137 1    
@<TRIPOS>SUBSTRUCTURE
     1 UNK         1 GROUP             0       ****    0 ROOT    
