@<TRIPOS>MOLECULE
3R136
137   139    1
SMALL
USER_CHARGES


@<TRIPOS>ATOM
      1 CA         30.4802   19.6445   -2.6867 C.3       0 UNK        -0.1979 
      2 C          30.1202   21.1025   -2.4454 C.2       0 UNK         0.4864 
      3 O          29.9718   21.8656   -3.4015 O.2       0 UNK        -0.5359 
      4 N          29.9608   21.4984   -1.1761 N.am      1 UNK        -0.4318 
      5 CA         29.6227   22.8538   -0.7211 C.3       1 UNK         0.0824 
      6 C6         30.1065   23.0992    0.7342 C.3       12 UNK        -0.0944 
      7 S7         29.5305   21.8510    1.9430 S.3       12 UNK        -0.2672 
      8 C8         30.9509   21.7539    3.0785 C.3       12 UNK         0.0333 
      9 C9         31.1708   23.0678    3.8143 C.ar      12 UNK        -0.0807 
     10 C10        32.1885   23.9383    3.4148 C.ar      12 UNK        -0.0894 
     11 C11        32.3770   25.1558    4.0735 C.ar      12 UNK        -0.0804 
     12 C12        31.5435   25.5027    5.1419 C.ar      12 UNK        -0.0824 
     13 C13        30.5350   24.6308    5.5618 C.ar      12 UNK        -0.0762 
     14 C14        30.3537   23.4152    4.8940 C.ar      12 UNK        -0.0782 
     15 C15        29.6515   24.9799    6.7491 C.3       12 UNK         0.0230 
     16 S16        27.9868   25.4887    6.2195 S.3       12 UNK        -0.2608 
     17 C17        28.1275   27.3077    6.0937 C.3       12 UNK        -0.0989 
     18 CA         28.2326   27.8572    4.6448 C.3       5 UNK         0.0716 
     19 N          27.3113   27.1735    3.7274 N.am      5 UNK        -0.4135 
     20 C          27.2167   27.3479    2.4028 C.2       4 UNK         0.5031 
     21 O          27.8576   28.1946    1.7732 O.2       4 UNK        -0.5229 
     22 CA         26.2223   26.4059    1.7003 C.3       4 UNK         0.0329 
     23 CB         24.7663   26.6820    2.1351 C.3       4 UNK        -0.2001 
     24 N          26.3567   26.3858    0.2394 N.am      4 UNK        -0.4303 
     25 C          26.0075   27.3268   -0.6534 C.2       3 UNK         0.5044 
     26 O          25.4506   28.3855   -0.3620 O.2       3 UNK        -0.5152 
     27 CA         26.3171   27.0427   -2.1398 C.3       3 UNK         0.0319 
     28 CB         27.4911   27.9075   -2.6270 C.3       3 UNK        -0.2001 
     29 N          26.6217   25.6369   -2.4208 N.am      3 UNK        -0.4354 
     30 C          25.7201   24.6449   -2.4378 C.2       2 UNK         0.4964 
     31 O          24.5087   24.8201   -2.3032 O.2       2 UNK        -0.5047 
     32 CA         26.2563   23.2109   -2.6126 C.3       2 UNK         0.0288 
     33 CB         26.1143   22.7578   -4.0748 C.3       2 UNK        -0.2113 
     34 N          27.6475   23.0134   -2.1847 N.am      2 UNK        -0.4145 
     35 C          28.1321   23.2085   -0.9496 C.2       1 UNK         0.5006 
     36 O          27.4506   23.6627   -0.0288 O.2       1 UNK        -0.5103 
     37 C          28.0570   29.3923    4.6688 C.2       5 UNK         0.5055 
     38 O          29.0018   30.1032    5.0084 O.2       5 UNK        -0.5220 
     39 N          26.8500   29.8751    4.3368 N.am      6 UNK        -0.4450 
     40 CA         26.5177   31.2976    4.2436 C.3       6 UNK         0.0367 
     41 CB         24.9910   31.4620    4.1721 C.3       6 UNK        -0.1929 
     42 C          27.1914   31.9890    3.0464 C.2       6 UNK         0.5070 
     43 O          27.5736   33.1535    3.1631 O.2       6 UNK        -0.5237 
     44 N          27.3285   31.2673    1.9250 N.am      7 UNK        -0.4739 
     45 CA         28.0462   31.7327    0.7385 C.3       7 UNK         0.0276 
     46 CB         27.4849   31.0448   -0.5126 C.3       7 UNK        -0.1927 
     47 C          29.5463   31.4547    0.8810 C.2       7 UNK         0.5013 
     48 O          30.3575   32.3541    0.6567 O.2       7 UNK        -0.5193 
     49 N          29.8920   30.2291    1.2994 N.am      8 UNK        -0.4253 
     50 CA         31.2587   29.7930    1.5879 C.3       8 UNK         0.0242 
     51 CB         31.3362   28.2645    1.4129 C.3       8 UNK        -0.2000 
     52 C          31.7015   30.2598    2.9886 C.2       8 UNK         0.4948 
     53 O          32.0604   29.4317    3.8275 O.2       8 UNK        -0.5275 
     54 N          31.6464   31.5793    3.2208 N.am      9 UNK        -0.4246 
     55 CA         31.9233   32.2549    4.4911 C.3       9 UNK         0.0261 
     56 CB         31.7387   33.7703    4.3067 C.3       9 UNK        -0.1959 
     57 C          33.3242   31.9219    5.0289 C.2       9 UNK         0.5033 
     58 O          34.3204   32.3585    4.4461 O.2       9 UNK        -0.5390 
     59 N          33.3636   31.0912    6.0823 N.am      10 UNK        -0.4215 
     60 CA         34.5564   30.4988    6.7075 C.3       10 UNK         0.0240 
     61 CB         35.3612   31.5808    7.4591 C.3       10 UNK        -0.1982 
     62 C          35.4353   29.6835    5.7312 C.2       10 UNK         0.4970 
     63 O          36.6328   29.5296    5.9783 O.2       10 UNK        -0.4916 
     64 N          34.8324   29.1996    4.6355 N.am      11 UNK        -0.4279 
     65 CA         35.4911   28.5591    3.4868 C.3       11 UNK         0.1003 
     66 C          36.4742   29.4887    2.7101 C.2       11 UNK         0.5709 
     67 N          36.3639   30.8089    2.8210 N.am      11 UNK        -0.7358 
     68 O          37.3288   29.0130    1.9661 O.2       11 UNK        -0.4999 
     69 C69        36.0931   27.1608    3.8233 C.3       12 UNK        -0.0954 
     70 S70        34.9519   25.9956    4.6540 S.3       12 UNK        -0.2268 
     71 C71        33.4642   26.1097    3.6143 C.3       12 UNK         0.0203 
     72 H72        30.5761   19.0888   -1.7540 H         1 UNK         0.0888 
     73 H73        29.7116   19.1635   -3.2911 H         1 UNK         0.0888 
     74 H74        31.4273   19.5760   -3.2212 H         1 UNK         0.0888 
     75 H75        30.0558   20.8212   -0.4318 H         1 UNK         0.3017 
     76 H76        30.1787   23.5540   -1.3488 H         1 UNK         0.0873 
     77 H77        31.1972   23.1011    0.7358 H         1 UNK         0.0745 
     78 H78        29.8163   24.0913    1.0865 H         1 UNK         0.0745 
     79 H79        31.8437   21.4645    2.5220 H         1 UNK         0.0705 
     80 H80        30.7713   20.9572    3.8019 H         1 UNK         0.0705 
     81 H81        32.8284   23.6736    2.5842 H         1 UNK         0.1334 
     82 H82        31.6883   26.4477    5.6481 H         1 UNK         0.1417 
     83 H83        29.5668   22.7426    5.2084 H         1 UNK         0.1562 
     84 H84        30.1103   25.7509    7.3697 H         1 UNK         0.0748 
     85 H85        29.5562   24.1014    7.3890 H         1 UNK         0.0748 
     86 H86        28.9768   27.6537    6.6858 H         1 UNK         0.0940 
     87 H87        27.2430   27.7141    6.5894 H         1 UNK         0.0940 
     88 H88        29.2423   27.6572    4.2790 H         1 UNK         0.0703 
     89 H89        26.7658   26.4384    4.1549 H         1 UNK         0.3081 
     90 H90        26.4765   25.3933    2.0184 H         1 UNK         0.0719 
     91 H91        24.6246   26.4838    3.1979 H         1 UNK         0.0809 
     92 H92        24.0656   26.0440    1.5962 H         1 UNK         0.0809 
     93 H93        24.4761   27.7185    1.9606 H         1 UNK         0.0809 
     94 H94        26.7992   25.5441   -0.1154 H         1 UNK         0.2990 
     95 H95        25.4311   27.3185   -2.7158 H         1 UNK         0.0690 
     96 H96        27.7423   27.6922   -3.6658 H         1 UNK         0.0788 
     97 H97        28.3865   27.7533   -2.0230 H         1 UNK         0.0788 
     98 H98        27.2372   28.9663   -2.5763 H         1 UNK         0.0788 
     99 H99        27.5931   25.4004   -2.5597 H         1 UNK         0.2993 
    100 H100       25.6337   22.5635   -1.9913 H         1 UNK         0.0949 
    101 H101       25.0842   22.8618   -4.4193 H         1 UNK         0.0767 
    102 H102       26.7436   23.3483   -4.7420 H         1 UNK         0.0767 
    103 H103       26.3896   21.7096   -4.1940 H         1 UNK         0.0767 
    104 H104       28.2961   22.6442   -2.8759 H         1 UNK         0.3013 
    105 H105       26.1232   29.2184    4.0940 H         1 UNK         0.3121 
    106 H106       26.8723   31.7894    5.1523 H         1 UNK         0.0774 
    107 H107       24.7157   32.5165    4.1238 H         1 UNK         0.0815 
    108 H108       24.5714   30.9757    3.2904 H         1 UNK         0.0815 
    109 H109       24.5042   31.0423    5.0526 H         1 UNK         0.0815 
    110 H110       27.0303   30.2998    1.9232 H         1 UNK         0.2987 
    111 H111       27.9065   32.8104    0.6250 H         1 UNK         0.0949 
    112 H112       26.4175   31.2339   -0.6280 H         1 UNK         0.0806 
    113 H113       27.9812   31.4053   -1.4144 H         1 UNK         0.0806 
    114 H114       27.6300   29.9658   -0.4676 H         1 UNK         0.0806 
    115 H115       29.1551   29.5511    1.4829 H         1 UNK         0.3010 
    116 H116       31.9377   30.2458    0.8621 H         1 UNK         0.0829 
    117 H117       30.9803   27.9587    0.4290 H         1 UNK         0.0813 
    118 H118       32.3645   27.9161    1.5045 H         1 UNK         0.0813 
    119 H119       30.7396   27.7393    2.1602 H         1 UNK         0.0813 
    120 H120       31.3400   32.1665    2.4528 H         1 UNK         0.3038 
    121 H121       31.1769   31.9111    5.2102 H         1 UNK         0.0769 
    122 H122       32.4188   34.1715    3.5541 H         1 UNK         0.0811 
    123 H123       31.9319   34.3031    5.2387 H         1 UNK         0.0811 
    124 H124       30.7198   34.0106    4.0010 H         1 UNK         0.0811 
    125 H125       32.4796   30.7500    6.4359 H         1 UNK         0.3204 
    126 H126       34.1907   29.7842    7.4461 H         1 UNK         0.0748 
    127 H127       36.1688   31.1371    8.0428 H         1 UNK         0.0771 
    128 H128       35.8122   32.2978    6.7721 H         1 UNK         0.0771 
    129 H129       34.7295   32.1341    8.1540 H         1 UNK         0.0771 
    130 H130       33.8362   29.3652    4.5160 H         1 UNK         0.2980 
    131 H131       34.6964   28.4014    2.7594 H         1 UNK         0.0545 
    132 H132       35.6613   31.2301    3.4201 H         1 UNK         0.3459 
    133 H133       36.9978   31.3979    2.3055 H         1 UNK         0.3459 
    134 H134       36.9738   27.2731    4.4573 H         1 UNK         0.0616 
    135 H135       36.4412   26.6734    2.9111 H         1 UNK         0.0616 
    136 H136       33.7302   25.9206    2.5731 H         1 UNK         0.0634 
    137 H137       33.0680   27.1205    3.6611 H         1 UNK         0.0634 
@<TRIPOS>BOND
     1    1    2 1    
     2    1   72 1    
     3    1   73 1    
     4    1   74 1    
     5    2    3 2    
     6    2    4 am   BACKBONE|DICT|INTERRES
     7    4    5 1    
     8    4   75 1    
     9    5    6 1    
    10    5   35 1    
    11    5   76 1    
    12    6    7 1    
    13    6   77 1    
    14    6   78 1    
    15    7    8 1    
    16    8    9 1    
    17    8   79 1    
    18    8   80 1    
    19    9   10 ar   
    20    9   14 ar   
    21   10   11 ar   
    22   10   81 1    
    23   11   12 ar   
    24   11   71 1    
    25   12   13 ar   
    26   12   82 1    
    27   13   14 ar   
    28   13   15 1    
    29   14   83 1    
    30   15   16 1    
    31   15   84 1    
    32   15   85 1    
    33   16   17 1    
    34   17   18 1    
    35   17   86 1    
    36   17   87 1    
    37   18   19 1    
    38   18   37 1    
    39   18   88 1    
    40   19   20 am   BACKBONE|DICT|INTERRES
    41   19   89 1    
    42   20   21 2    
    43   20   22 1    
    44   22   23 1    
    45   22   24 1    
    46   22   90 1    
    47   23   91 1    
    48   23   92 1    
    49   23   93 1    
    50   24   25 am   BACKBONE|DICT|INTERRES
    51   24   94 1    
    52   25   26 2    
    53   25   27 1    
    54   27   28 1    
    55   27   29 1    
    56   27   95 1    
    57   28   96 1    
    58   28   97 1    
    59   28   98 1    
    60   29   30 am   BACKBONE|DICT|INTERRES
    61   29   99 1    
    62   30   31 2    
    63   30   32 1    
    64   32   33 1    
    65   32   34 1    
    66   32  100 1    
    67   33  101 1    
    68   33  102 1    
    69   33  103 1    
    70   34   35 am   BACKBONE|DICT|INTERRES
    71   34  104 1    
    72   35   36 2    
    73   37   38 2    
    74   37   39 am   BACKBONE|DICT|INTERRES
    75   39   40 1    
    76   39  105 1    
    77   40   41 1    
    78   40   42 1    
    79   40  106 1    
    80   41  107 1    
    81   41  108 1    
    82   41  109 1    
    83   42   43 2    
    84   42   44 am   BACKBONE|DICT|INTERRES
    85   44   45 1    
    86   44  110 1    
    87   45   46 1    
    88   45   47 1    
    89   45  111 1    
    90   46  112 1    
    91   46  113 1    
    92   46  114 1    
    93   47   48 2    
    94   47   49 am   BACKBONE|DICT|INTERRES
    95   49   50 1    
    96   49  115 1    
    97   50   51 1    
    98   50   52 1    
    99   50  116 1    
   100   51  117 1    
   101   51  118 1    
   102   51  119 1    
   103   52   53 2    
   104   52   54 am   BACKBONE|DICT|INTERRES
   105   54   55 1    
   106   54  120 1    
   107   55   56 1    
   108   55   57 1    
   109   55  121 1    
   110   56  122 1    
   111   56  123 1    
   112   56  124 1    
   113   57   58 2    
   114   57   59 am   BACKBONE|DICT|INTERRES
   115   59   60 1    
   116   59  125 1    
   117   60   61 1    
   118   60   62 1    
   119   60  126 1    
   120   61  127 1    
   121   61  128 1    
   122   61  129 1    
   123   62   63 2    
   124   62   64 am   BACKBONE|DICT|INTERRES
   125   64   65 1    
   126   64  130 1    
   127   65   66 1    
   128   65   69 1    
   129   65  131 1    
   130   66   67 am   BACKBONE|DICT|INTERRES
   131   66   68 2    
   132   67  132 1    
   133   67  133 1    
   134   69   70 1    
   135   69  134 1    
   136   69  135 1    
   137   70   71 1    
   138   71  136 1    
   139   71  137 1    
@<TRIPOS>SUBSTRUCTURE
     1 UNK         1 GROUP             0       ****    0 ROOT    
