@<TRIPOS>MOLECULE
3R136
137   139    1
SMALL
USER_CHARGES


@<TRIPOS>ATOM
      1 CA         28.6173   18.6565   -2.4934 C.3       0 UNK        -0.1979 
      2 C          28.6879   20.1740   -2.4160 C.2       0 UNK         0.4864 
      3 O          28.2850   20.8571   -3.3589 O.2       0 UNK        -0.5359 
      4 N          29.1794   20.7139   -1.2935 N.am      1 UNK        -0.4318 
      5 CA         29.3507   22.1466   -1.0144 C.3       1 UNK         0.0824 
      6 C6         30.4816   22.3767    0.0247 C.3       12 UNK        -0.0944 
      7 S7         30.2509   21.4881    1.6049 S.3       12 UNK        -0.2672 
      8 C8         31.8058   21.8886    2.4610 C.3       12 UNK         0.0333 
      9 C9         31.7828   23.2777    3.0859 C.ar      12 UNK        -0.0807 
     10 C10        32.3437   24.3679    2.4164 C.ar      12 UNK        -0.0894 
     11 C11        32.3800   25.6302    3.0173 C.ar      12 UNK        -0.0804 
     12 C12        31.8498   25.7991    4.3015 C.ar      12 UNK        -0.0824 
     13 C13        31.2605   24.7201    4.9739 C.ar      12 UNK        -0.0762 
     14 C14        31.2347   23.4640    4.3577 C.ar      12 UNK        -0.0782 
     15 C15        30.6821   24.8668    6.3814 C.3       12 UNK         0.0230 
     16 S16        29.6906   26.3754    6.6584 S.3       12 UNK        -0.2608 
     17 C17        28.4569   26.3111    5.3129 C.3       12 UNK        -0.0989 
     18 CA         28.6483   27.5011    4.3326 C.3       5 UNK         0.0716 
     19 N          28.5645   27.0834    2.9313 N.am      5 UNK        -0.4135 
     20 C          29.0978   27.7619    1.9067 C.2       4 UNK         0.5031 
     21 O          29.7465   28.8002    2.0400 O.2       4 UNK        -0.5229 
     22 CA         28.7848   27.2404    0.4955 C.3       4 UNK         0.0329 
     23 CB         29.8675   26.2604    0.0331 C.3       4 UNK        -0.2001 
     24 N          27.4632   26.6080    0.4012 N.am      4 UNK        -0.4303 
     25 C          26.3071   27.2726    0.5539 C.2       3 UNK         0.5044 
     26 O          26.2689   28.4649    0.8616 O.2       3 UNK        -0.5152 
     27 CA         24.9764   26.5071    0.4055 C.3       3 UNK         0.0319 
     28 CB         23.9745   27.2781   -0.4791 C.3       3 UNK        -0.2001 
     29 N          25.1015   25.1089   -0.0279 N.am      3 UNK        -0.4354 
     30 C          25.5443   24.6440   -1.2051 C.2       2 UNK         0.4964 
     31 O          25.9186   25.3498   -2.1433 O.2       2 UNK        -0.5047 
     32 CA         25.6120   23.1130   -1.3338 C.3       2 UNK         0.0288 
     33 CB         24.7624   22.6195   -2.5171 C.3       2 UNK        -0.2113 
     34 N          26.9832   22.6224   -1.4884 N.am      2 UNK        -0.4145 
     35 C          28.0158   22.8546   -0.6646 C.2       1 UNK         0.5006 
     36 O          27.9342   23.5804    0.3298 O.2       1 UNK        -0.5103 
     37 C          27.7403   28.7114    4.6720 C.2       5 UNK         0.5055 
     38 O          27.8262   29.2243    5.7879 O.2       5 UNK        -0.5220 
     39 N          26.9106   29.1673    3.7220 N.am      6 UNK        -0.4450 
     40 CA         26.1769   30.4304    3.7980 C.3       6 UNK         0.0367 
     41 CB         24.6984   30.1960    3.4436 C.3       6 UNK        -0.1929 
     42 C          26.8072   31.4692    2.8574 C.2       6 UNK         0.5070 
     43 O          26.9974   32.6134    3.2685 O.2       6 UNK        -0.5237 
     44 N          27.1103   31.0616    1.6155 N.am      7 UNK        -0.4739 
     45 CA         27.6358   31.9269    0.5568 C.3       7 UNK         0.0276 
     46 CB         27.5262   31.2054   -0.7964 C.3       7 UNK        -0.1927 
     47 C          29.0745   32.4090    0.8055 C.2       7 UNK         0.5013 
     48 O          29.3332   33.6071    0.6828 O.2       7 UNK        -0.5193 
     49 N          29.9790   31.4784    1.1385 N.am      8 UNK        -0.4253 
     50 CA         31.3778   31.7665    1.4656 C.3       8 UNK         0.0242 
     51 CB         32.2948   30.6930    0.8540 C.3       8 UNK        -0.2000 
     52 C          31.5707   31.8473    2.9843 C.2       8 UNK         0.4948 
     53 O          32.2653   32.7496    3.4540 O.2       8 UNK        -0.5275 
     54 N          30.9463   30.9134    3.7187 N.am      9 UNK        -0.4246 
     55 CA         30.8822   30.7932    5.1826 C.3       9 UNK         0.0261 
     56 CB         30.1382   31.9867    5.8134 C.3       9 UNK        -0.1959 
     57 C          32.2326   30.5302    5.8683 C.2       9 UNK         0.5033 
     58 O          32.3983   29.4786    6.4865 O.2       9 UNK        -0.5390 
     59 N          33.1734   31.4739    5.7420 N.am      10 UNK        -0.4215 
     60 CA         34.5449   31.3651    6.2473 C.3       10 UNK         0.0240 
     61 CB         35.2225   32.7436    6.1898 C.3       10 UNK        -0.1982 
     62 C          35.3701   30.3206    5.4771 C.2       10 UNK         0.4970 
     63 O          36.2258   29.6666    6.0736 O.2       10 UNK        -0.4916 
     64 N          35.0762   30.1776    4.1771 N.am      11 UNK        -0.4279 
     65 CA         35.6455   29.1776    3.2622 C.3       11 UNK         0.1003 
     66 C          37.1636   29.3544    2.9440 C.2       11 UNK         0.5709 
     67 N          37.7548   30.5176    3.1911 N.am      11 UNK        -0.7358 
     68 O          37.8129   28.4419    2.4385 O.2       11 UNK        -0.4999 
     69 C69        35.2470   27.7254    3.6691 C.3       12 UNK        -0.0954 
     70 S70        34.8013   26.7174    2.2190 S.3       12 UNK        -0.2268 
     71 C71        32.9843   26.8040    2.2615 C.3       12 UNK         0.0203 
     72 H72        29.2021   18.2970   -3.3396 H         1 UNK         0.0888 
     73 H73        29.0024   18.1842   -1.5898 H         1 UNK         0.0888 
     74 H74        27.5851   18.3355   -2.6308 H         1 UNK         0.0888 
     75 H75        29.4591   20.1066   -0.5353 H         1 UNK         0.3017 
     76 H76        29.6860   22.6201   -1.9399 H         1 UNK         0.0873 
     77 H77        31.4286   22.0476   -0.4061 H         1 UNK         0.0745 
     78 H78        30.6125   23.4374    0.2268 H         1 UNK         0.0745 
     79 H79        31.9738   21.1440    3.2406 H         1 UNK         0.0705 
     80 H80        32.6443   21.7914    1.7696 H         1 UNK         0.0705 
     81 H81        32.7677   24.2331    1.4306 H         1 UNK         0.1334 
     82 H82        31.8898   26.7705    4.7756 H         1 UNK         0.1417 
     83 H83        30.8003   22.6189    4.8747 H         1 UNK         0.1562 
     84 H84        31.5062   24.8588    7.0957 H         1 UNK         0.0748 
     85 H85        30.0567   24.0071    6.6275 H         1 UNK         0.0748 
     86 H86        27.4552   26.2952    5.7472 H         1 UNK         0.0940 
     87 H87        28.5593   25.3562    4.7951 H         1 UNK         0.0940 
     88 H88        29.6681   27.8706    4.4536 H         1 UNK         0.0703 
     89 H89        28.0413   26.2431    2.7323 H         1 UNK         0.3081 
     90 H90        28.7899   28.0928   -0.1858 H         1 UNK         0.0719 
     91 H91        30.0461   25.4928    0.7855 H         1 UNK         0.0809 
     92 H92        29.5968   25.7692   -0.9016 H         1 UNK         0.0809 
     93 H93        30.8083   26.7818   -0.1392 H         1 UNK         0.0809 
     94 H94        27.4406   25.6132    0.2019 H         1 UNK         0.2990 
     95 H95        24.5538   26.4653    1.4103 H         1 UNK         0.0690 
     96 H96        23.0217   26.7537   -0.5503 H         1 UNK         0.0788 
     97 H97        24.3542   27.4250   -1.4906 H         1 UNK         0.0788 
     98 H98        23.7676   28.2666   -0.0668 H         1 UNK         0.0788 
     99 H99        24.8576   24.4268    0.6777 H         1 UNK         0.2993 
    100 H100       25.2115   22.6636   -0.4227 H         1 UNK         0.0949 
    101 H101       24.7421   21.5304   -2.5648 H         1 UNK         0.0767 
    102 H102       23.7298   22.9593   -2.4255 H         1 UNK         0.0767 
    103 H103       25.1449   22.9892   -3.4695 H         1 UNK         0.0767 
    104 H104       27.1718   22.0378   -2.2979 H         1 UNK         0.3013 
    105 H105       26.8889   28.6995    2.8241 H         1 UNK         0.3121 
    106 H106       26.2148   30.8379    4.8106 H         1 UNK         0.0774 
    107 H107       24.5734   29.8071    2.4327 H         1 UNK         0.0815 
    108 H108       24.1327   31.1265    3.5057 H         1 UNK         0.0815 
    109 H109       24.2357   29.4893    4.1324 H         1 UNK         0.0815 
    110 H110       26.8634   30.1138    1.3381 H         1 UNK         0.2987 
    111 H111       26.9998   32.8140    0.5128 H         1 UNK         0.0949 
    112 H112       28.1219   30.2931   -0.8198 H         1 UNK         0.0806 
    113 H113       26.4938   30.9339   -1.0181 H         1 UNK         0.0806 
    114 H114       27.8752   31.8441   -1.6090 H         1 UNK         0.0806 
    115 H115       29.6770   30.5162    1.2640 H         1 UNK         0.3010 
    116 H116       31.6694   32.7301    1.0419 H         1 UNK         0.0829 
    117 H117       32.0881   29.6986    1.2488 H         1 UNK         0.0813 
    118 H118       32.1809   30.6497   -0.2292 H         1 UNK         0.0813 
    119 H119       33.3429   30.9138    1.0593 H         1 UNK         0.0813 
    120 H120       30.4601   30.1833    3.2049 H         1 UNK         0.3038 
    121 H121       30.2834   29.9074    5.3792 H         1 UNK         0.0769 
    122 H122       30.0426   31.8585    6.8923 H         1 UNK         0.0811 
    123 H123       30.6507   32.9334    5.6416 H         1 UNK         0.0811 
    124 H124       29.1293   32.0754    5.4094 H         1 UNK         0.0811 
    125 H125       32.9522   32.2625    5.1372 H         1 UNK         0.3204 
    126 H126       34.4986   31.0473    7.2912 H         1 UNK         0.0748 
    127 H127       36.2436   32.6933    6.5708 H         1 UNK         0.0771 
    128 H128       35.2714   33.1296    5.1707 H         1 UNK         0.0771 
    129 H129       34.6869   33.4727    6.7982 H         1 UNK         0.0771 
    130 H130       34.3807   30.7905    3.7794 H         1 UNK         0.2980 
    131 H131       35.1547   29.4049    2.3153 H         1 UNK         0.0545 
    132 H132       38.7327   30.6288    2.9743 H         1 UNK         0.3459 
    133 H133       37.2375   31.2797    3.5980 H         1 UNK         0.3459 
    134 H134       36.0509   27.2302    4.2164 H         1 UNK         0.0616 
    135 H135       34.3958   27.7280    4.3521 H         1 UNK         0.0616 
    136 H136       32.6238   26.7925    1.2340 H         1 UNK         0.0634 
    137 H137       32.6574   27.7549    2.6856 H         1 UNK         0.0634 
@<TRIPOS>BOND
     1    1    2 1    
     2    1   72 1    
     3    1   73 1    
     4    1   74 1    
     5    2    3 2    
     6    2    4 am   BACKBONE|DICT|INTERRES
     7    4    5 1    
     8    4   75 1    
     9    5    6 1    
    10    5   35 1    
    11    5   76 1    
    12    6    7 1    
    13    6   77 1    
    14    6   78 1    
    15    7    8 1    
    16    8    9 1    
    17    8   79 1    
    18    8   80 1    
    19    9   10 ar   
    20    9   14 ar   
    21   10   11 ar   
    22   10   81 1    
    23   11   12 ar   
    24   11   71 1    
    25   12   13 ar   
    26   12   82 1    
    27   13   14 ar   
    28   13   15 1    
    29   14   83 1    
    30   15   16 1    
    31   15   84 1    
    32   15   85 1    
    33   16   17 1    
    34   17   18 1    
    35   17   86 1    
    36   17   87 1    
    37   18   19 1    
    38   18   37 1    
    39   18   88 1    
    40   19   20 am   BACKBONE|DICT|INTERRES
    41   19   89 1    
    42   20   21 2    
    43   20   22 1    
    44   22   23 1    
    45   22   24 1    
    46   22   90 1    
    47   23   91 1    
    48   23   92 1    
    49   23   93 1    
    50   24   25 am   BACKBONE|DICT|INTERRES
    51   24   94 1    
    52   25   26 2    
    53   25   27 1    
    54   27   28 1    
    55   27   29 1    
    56   27   95 1    
    57   28   96 1    
    58   28   97 1    
    59   28   98 1    
    60   29   30 am   BACKBONE|DICT|INTERRES
    61   29   99 1    
    62   30   31 2    
    63   30   32 1    
    64   32   33 1    
    65   32   34 1    
    66   32  100 1    
    67   33  101 1    
    68   33  102 1    
    69   33  103 1    
    70   34   35 am   BACKBONE|DICT|INTERRES
    71   34  104 1    
    72   35   36 2    
    73   37   38 2    
    74   37   39 am   BACKBONE|DICT|INTERRES
    75   39   40 1    
    76   39  105 1    
    77   40   41 1    
    78   40   42 1    
    79   40  106 1    
    80   41  107 1    
    81   41  108 1    
    82   41  109 1    
    83   42   43 2    
    84   42   44 am   BACKBONE|DICT|INTERRES
    85   44   45 1    
    86   44  110 1    
    87   45   46 1    
    88   45   47 1    
    89   45  111 1    
    90   46  112 1    
    91   46  113 1    
    92   46  114 1    
    93   47   48 2    
    94   47   49 am   BACKBONE|DICT|INTERRES
    95   49   50 1    
    96   49  115 1    
    97   50   51 1    
    98   50   52 1    
    99   50  116 1    
   100   51  117 1    
   101   51  118 1    
   102   51  119 1    
   103   52   53 2    
   104   52   54 am   BACKBONE|DICT|INTERRES
   105   54   55 1    
   106   54  120 1    
   107   55   56 1    
   108   55   57 1    
   109   55  121 1    
   110   56  122 1    
   111   56  123 1    
   112   56  124 1    
   113   57   58 2    
   114   57   59 am   BACKBONE|DICT|INTERRES
   115   59   60 1    
   116   59  125 1    
   117   60   61 1    
   118   60   62 1    
   119   60  126 1    
   120   61  127 1    
   121   61  128 1    
   122   61  129 1    
   123   62   63 2    
   124   62   64 am   BACKBONE|DICT|INTERRES
   125   64   65 1    
   126   64  130 1    
   127   65   66 1    
   128   65   69 1    
   129   65  131 1    
   130   66   67 am   BACKBONE|DICT|INTERRES
   131   66   68 2    
   132   67  132 1    
   133   67  133 1    
   134   69   70 1    
   135   69  134 1    
   136   69  135 1    
   137   70   71 1    
   138   71  136 1    
   139   71  137 1    
@<TRIPOS>SUBSTRUCTURE
     1 UNK         1 GROUP             0       ****    0 ROOT    
