@<TRIPOS>MOLECULE
3R136
137   139    1
SMALL
USER_CHARGES


@<TRIPOS>ATOM
      1 CA         31.0399   22.7766   -5.4174 C.3       0 UNK        -0.1979 
      2 C          30.0468   23.4278   -4.4670 C.2       0 UNK         0.4864 
      3 O          28.9167   23.7191   -4.8636 O.2       0 UNK        -0.5359 
      4 N          30.4502   23.6513   -3.2098 N.am      1 UNK        -0.4318 
      5 CA         29.6532   24.2631   -2.1394 C.3       1 UNK         0.0824 
      6 C6         30.5487   24.9295   -1.0605 C.3       12 UNK        -0.0944 
      7 S7         31.8797   23.8585   -0.4141 S.3       12 UNK        -0.2672 
      8 C8         32.5057   24.8878    0.9583 C.3       12 UNK         0.0333 
      9 C9         31.7034   24.8460    2.2622 C.ar      12 UNK        -0.0807 
     10 C10        32.1997   25.5668    3.3517 C.ar      12 UNK        -0.0894 
     11 C11        31.5415   25.5560    4.5836 C.ar      12 UNK        -0.0804 
     12 C12        30.3638   24.8179    4.7283 C.ar      12 UNK        -0.0824 
     13 C13        29.8457   24.0963    3.6487 C.ar      12 UNK        -0.0762 
     14 C14        30.5184   24.1128    2.4225 C.ar      12 UNK        -0.0782 
     15 C15        28.5763   23.2704    3.8105 C.3       12 UNK         0.0230 
     16 S16        27.1073   24.1234    3.1531 S.3       12 UNK        -0.2608 
     17 C17        26.9029   25.4952    4.3395 C.3       12 UNK        -0.0989 
     18 CA         27.3928   26.8399    3.7525 C.3       5 UNK         0.0716 
     19 N          26.6362   27.2224    2.5571 N.am      5 UNK        -0.4135 
     20 C          26.9505   28.2474    1.7554 C.2       4 UNK         0.5031 
     21 O          27.9859   28.9039    1.8749 O.2       4 UNK        -0.5229 
     22 CA         25.9193   28.6198    0.6719 C.3       4 UNK         0.0329 
     23 CB         26.5163   29.4989   -0.4495 C.3       4 UNK        -0.2001 
     24 N          25.2003   27.4575    0.1289 N.am      4 UNK        -0.4303 
     25 C          25.7190   26.4618   -0.6035 C.2       3 UNK         0.5044 
     26 O          26.8969   26.4080   -0.9710 O.2       3 UNK        -0.5152 
     27 CA         24.7453   25.3400   -0.9992 C.3       3 UNK         0.0319 
     28 CB         23.6745   25.8375   -1.9869 C.3       3 UNK        -0.2001 
     29 N          25.5207   24.2814   -1.6301 N.am      3 UNK        -0.4354 
     30 C          25.3953   22.9634   -1.4455 C.2       2 UNK         0.4964 
     31 O          24.4844   22.4420   -0.8014 O.2       2 UNK        -0.5047 
     32 CA         26.4790   22.0740   -2.0890 C.3       2 UNK         0.0288 
     33 CB         25.9337   21.3804   -3.3482 C.3       2 UNK        -0.2113 
     34 N          27.6884   22.8255   -2.4447 N.am      2 UNK        -0.4145 
     35 C          28.5871   23.2969   -1.5691 C.2       1 UNK         0.5006 
     36 O          28.5710   23.0086   -0.3719 O.2       1 UNK        -0.5103 
     37 C          27.3149   27.9645    4.8060 C.2       5 UNK         0.5055 
     38 O          26.2675   28.6047    4.9307 O.2       5 UNK        -0.5220 
     39 N          28.4246   28.1853    5.5255 N.am      6 UNK        -0.4450 
     40 CA         28.6672   29.3181    6.4330 C.3       6 UNK         0.0367 
     41 CB         27.6492   29.3617    7.5941 C.3       6 UNK        -0.1929 
     42 C          28.7991   30.6648    5.6869 C.2       6 UNK         0.5070 
     43 O          28.5189   31.7141    6.2686 O.2       6 UNK        -0.5237 
     44 N          29.2369   30.6178    4.4210 N.am      7 UNK        -0.4739 
     45 CA         29.4852   31.7808    3.5686 C.3       7 UNK         0.0276 
     46 CB         28.1762   32.2937    2.9406 C.3       7 UNK        -0.1927 
     47 C          30.5338   31.4581    2.4971 C.2       7 UNK         0.5013 
     48 O          31.4609   32.2486    2.3117 O.2       7 UNK        -0.5193 
     49 N          30.3896   30.3057    1.8238 N.am      8 UNK        -0.4253 
     50 CA         31.3223   29.7777    0.8229 C.3       8 UNK         0.0242 
     51 CB         30.7797   28.4492    0.2676 C.3       8 UNK        -0.2000 
     52 C          32.7350   29.5936    1.4025 C.2       8 UNK         0.4948 
     53 O          32.9324   28.7283    2.2547 O.2       8 UNK        -0.5275 
     54 N          33.6714   30.4421    0.9536 N.am      9 UNK        -0.4246 
     55 CA         35.0456   30.5804    1.4553 C.3       9 UNK         0.0261 
     56 CB         35.8708   29.3023    1.1875 C.3       9 UNK        -0.1959 
     57 C          35.1138   31.0426    2.9276 C.2       9 UNK         0.5033 
     58 O          36.0525   30.6782    3.6385 O.2       9 UNK        -0.5390 
     59 N          34.1189   31.8321    3.3637 N.am      10 UNK        -0.4215 
     60 CA         33.9363   32.4670    4.6786 C.3       10 UNK         0.0240 
     61 CB         35.0946   33.4320    5.0003 C.3       10 UNK        -0.1982 
     62 C          33.6748   31.5097    5.8571 C.2       10 UNK         0.4970 
     63 O          32.9619   31.9011    6.7815 O.2       10 UNK        -0.4916 
     64 N          34.2458   30.3002    5.8167 N.am      11 UNK        -0.4279 
     65 CA         34.1562   29.2453    6.8424 C.3       11 UNK         0.1003 
     66 C          34.8944   29.5788    8.1757 C.2       11 UNK         0.5709 
     67 N          35.7866   30.5620    8.2105 N.am      11 UNK        -0.7358 
     68 O          34.6859   28.9167    9.1900 O.2       11 UNK        -0.4999 
     69 C69        32.7053   28.7278    7.0712 C.3       12 UNK        -0.0954 
     70 S70        31.9254   28.1140    5.5417 S.3       12 UNK        -0.2268 
     71 C71        32.1257   26.3224    5.7588 C.3       12 UNK         0.0203 
     72 H72        30.6395   21.8340   -5.7900 H         1 UNK         0.0888 
     73 H73        31.2257   23.4293   -6.2700 H         1 UNK         0.0888 
     74 H74        31.9941   22.5722   -4.9321 H         1 UNK         0.0888 
     75 H75        31.3773   23.3645   -2.9269 H         1 UNK         0.3017 
     76 H76        29.0798   25.0775   -2.5888 H         1 UNK         0.0873 
     77 H77        29.9436   25.3084   -0.2339 H         1 UNK         0.0745 
     78 H78        31.0259   25.8086   -1.4955 H         1 UNK         0.0745 
     79 H79        33.5227   24.5583    1.1755 H         1 UNK         0.0705 
     80 H80        32.5875   25.9220    0.6206 H         1 UNK         0.0705 
     81 H81        33.1087   26.1440    3.2431 H         1 UNK         0.1334 
     82 H82        29.8571   24.7953    5.6833 H         1 UNK         0.1417 
     83 H83        30.1079   23.5427    1.6023 H         1 UNK         0.1562 
     84 H84        28.6927   22.3232    3.2814 H         1 UNK         0.0748 
     85 H85        28.4118   23.0116    4.8576 H         1 UNK         0.0748 
     86 H86        27.4326   25.2557    5.2630 H         1 UNK         0.0940 
     87 H87        25.8472   25.5579    4.6112 H         1 UNK         0.0940 
     88 H88        28.4371   26.7276    3.4514 H         1 UNK         0.0703 
     89 H89        25.7675   26.7347    2.4043 H         1 UNK         0.3081 
     90 H90        25.1672   29.2225    1.1830 H         1 UNK         0.0719 
     91 H91        27.3415   29.0026   -0.9607 H         1 UNK         0.0809 
     92 H92        26.9061   30.4340   -0.0454 H         1 UNK         0.0809 
     93 H93        25.7647   29.7573   -1.1951 H         1 UNK         0.0809 
     94 H94        24.2179   27.4093    0.3632 H         1 UNK         0.2990 
     95 H95        24.2691   24.9644   -0.0910 H         1 UNK         0.0690 
     96 H96        23.0155   25.0256   -2.2951 H         1 UNK         0.0788 
     97 H97        24.1229   26.2623   -2.8861 H         1 UNK         0.0788 
     98 H98        23.0463   26.6080   -1.5387 H         1 UNK         0.0788 
     99 H99        26.3461   24.6184   -2.1077 H         1 UNK         0.2993 
    100 H100       26.7491   21.3075   -1.3593 H         1 UNK         0.0949 
    101 H101       26.6713   20.7022   -3.7778 H         1 UNK         0.0767 
    102 H102       25.0471   20.7887   -3.1155 H         1 UNK         0.0767 
    103 H103       25.6529   22.1021   -4.1165 H         1 UNK         0.0767 
    104 H104       27.8121   23.0814   -3.4216 H         1 UNK         0.3013 
    105 H105       29.2316   27.6003    5.3527 H         1 UNK         0.3121 
    106 H106       29.6396   29.1391    6.8895 H         1 UNK         0.0774 
    107 H107       27.9627   30.0759    8.3564 H         1 UNK         0.0815 
    108 H108       26.6580   29.6677    7.2596 H         1 UNK         0.0815 
    109 H109       27.5575   28.3907    8.0802 H         1 UNK         0.0815 
    110 H110       29.4706   29.7184    4.0241 H         1 UNK         0.2987 
    111 H111       29.9040   32.5779    4.1876 H         1 UNK         0.0949 
    112 H112       27.6824   31.5249    2.3465 H         1 UNK         0.0806 
    113 H113       27.4735   32.6258    3.7048 H         1 UNK         0.0806 
    114 H114       28.3655   33.1439    2.2841 H         1 UNK         0.0806 
    115 H115       29.5414   29.7574    1.9663 H         1 UNK         0.3010 
    116 H116       31.3645   30.4946    0.0006 H         1 UNK         0.0829 
    117 H117       29.8158   28.5856   -0.2228 H         1 UNK         0.0813 
    118 H118       31.4629   28.0283   -0.4705 H         1 UNK         0.0813 
    119 H119       30.6493   27.7060    1.0562 H         1 UNK         0.0813 
    120 H120       33.3940   31.1278    0.2640 H         1 UNK         0.3038 
    121 H121       35.4974   31.3853    0.8738 H         1 UNK         0.0769 
    122 H122       35.8089   29.0009    0.1420 H         1 UNK         0.0811 
    123 H123       35.5333   28.4651    1.7992 H         1 UNK         0.0811 
    124 H124       36.9252   29.4634    1.4151 H         1 UNK         0.0811 
    125 H125       33.3428   31.9956    2.7259 H         1 UNK         0.3204 
    126 H126       33.0320   33.0696    4.5776 H         1 UNK         0.0748 
    127 H127       35.2228   34.1733    4.2115 H         1 UNK         0.0771 
    128 H128       34.9023   33.9757    5.9264 H         1 UNK         0.0771 
    129 H129       36.0423   32.9075    5.1248 H         1 UNK         0.0771 
    130 H130       34.8680   30.1118    5.0365 H         1 UNK         0.2980 
    131 H131       34.7244   28.4107    6.4308 H         1 UNK         0.0545 
    132 H132       35.9840   31.1015    7.3834 H         1 UNK         0.3459 
    133 H133       36.2672   30.7621    9.0734 H         1 UNK         0.3459 
    134 H134       32.6935   27.9254    7.8106 H         1 UNK         0.0616 
    135 H135       32.0760   29.5169    7.4840 H         1 UNK         0.0616 
    136 H136       33.1869   26.0878    5.8556 H         1 UNK         0.0634 
    137 H137       31.6508   26.0160    6.6922 H         1 UNK         0.0634 
@<TRIPOS>BOND
     1    1    2 1    
     2    1   72 1    
     3    1   73 1    
     4    1   74 1    
     5    2    3 2    
     6    2    4 am   BACKBONE|DICT|INTERRES
     7    4    5 1    
     8    4   75 1    
     9    5    6 1    
    10    5   35 1    
    11    5   76 1    
    12    6    7 1    
    13    6   77 1    
    14    6   78 1    
    15    7    8 1    
    16    8    9 1    
    17    8   79 1    
    18    8   80 1    
    19    9   10 ar   
    20    9   14 ar   
    21   10   11 ar   
    22   10   81 1    
    23   11   12 ar   
    24   11   71 1    
    25   12   13 ar   
    26   12   82 1    
    27   13   14 ar   
    28   13   15 1    
    29   14   83 1    
    30   15   16 1    
    31   15   84 1    
    32   15   85 1    
    33   16   17 1    
    34   17   18 1    
    35   17   86 1    
    36   17   87 1    
    37   18   19 1    
    38   18   37 1    
    39   18   88 1    
    40   19   20 am   BACKBONE|DICT|INTERRES
    41   19   89 1    
    42   20   21 2    
    43   20   22 1    
    44   22   23 1    
    45   22   24 1    
    46   22   90 1    
    47   23   91 1    
    48   23   92 1    
    49   23   93 1    
    50   24   25 am   BACKBONE|DICT|INTERRES
    51   24   94 1    
    52   25   26 2    
    53   25   27 1    
    54   27   28 1    
    55   27   29 1    
    56   27   95 1    
    57   28   96 1    
    58   28   97 1    
    59   28   98 1    
    60   29   30 am   BACKBONE|DICT|INTERRES
    61   29   99 1    
    62   30   31 2    
    63   30   32 1    
    64   32   33 1    
    65   32   34 1    
    66   32  100 1    
    67   33  101 1    
    68   33  102 1    
    69   33  103 1    
    70   34   35 am   BACKBONE|DICT|INTERRES
    71   34  104 1    
    72   35   36 2    
    73   37   38 2    
    74   37   39 am   BACKBONE|DICT|INTERRES
    75   39   40 1    
    76   39  105 1    
    77   40   41 1    
    78   40   42 1    
    79   40  106 1    
    80   41  107 1    
    81   41  108 1    
    82   41  109 1    
    83   42   43 2    
    84   42   44 am   BACKBONE|DICT|INTERRES
    85   44   45 1    
    86   44  110 1    
    87   45   46 1    
    88   45   47 1    
    89   45  111 1    
    90   46  112 1    
    91   46  113 1    
    92   46  114 1    
    93   47   48 2    
    94   47   49 am   BACKBONE|DICT|INTERRES
    95   49   50 1    
    96   49  115 1    
    97   50   51 1    
    98   50   52 1    
    99   50  116 1    
   100   51  117 1    
   101   51  118 1    
   102   51  119 1    
   103   52   53 2    
   104   52   54 am   BACKBONE|DICT|INTERRES
   105   54   55 1    
   106   54  120 1    
   107   55   56 1    
   108   55   57 1    
   109   55  121 1    
   110   56  122 1    
   111   56  123 1    
   112   56  124 1    
   113   57   58 2    
   114   57   59 am   BACKBONE|DICT|INTERRES
   115   59   60 1    
   116   59  125 1    
   117   60   61 1    
   118   60   62 1    
   119   60  126 1    
   120   61  127 1    
   121   61  128 1    
   122   61  129 1    
   123   62   63 2    
   124   62   64 am   BACKBONE|DICT|INTERRES
   125   64   65 1    
   126   64  130 1    
   127   65   66 1    
   128   65   69 1    
   129   65  131 1    
   130   66   67 am   BACKBONE|DICT|INTERRES
   131   66   68 2    
   132   67  132 1    
   133   67  133 1    
   134   69   70 1    
   135   69  134 1    
   136   69  135 1    
   137   70   71 1    
   138   71  136 1    
   139   71  137 1    
@<TRIPOS>SUBSTRUCTURE
     1 UNK         1 GROUP             0       ****    0 ROOT    
