@<TRIPOS>MOLECULE
3R136
137   139    1
SMALL
USER_CHARGES


@<TRIPOS>ATOM
      1 CA         25.8966   20.8426    1.4686 C.3       0 UNK        -0.1979 
      2 C          26.9395   20.6438    0.3778 C.2       0 UNK         0.4864 
      3 O          26.6624   19.9787   -0.6219 O.2       0 UNK        -0.5359 
      4 N          28.1355   21.2130    0.5675 N.am      1 UNK        -0.4318 
      5 CA         29.2278   21.2374   -0.4097 C.3       1 UNK         0.0824 
      6 C6         30.6100   21.3001    0.2980 C.3       12 UNK        -0.0944 
      7 S7         30.8243   22.7691    1.3638 S.3       12 UNK        -0.2672 
      8 C8         30.7917   22.0442    3.0333 C.3       12 UNK         0.0333 
      9 C9         30.1257   23.0000    4.0085 C.ar      12 UNK        -0.0807 
     10 C10        30.8505   24.0496    4.5805 C.ar      12 UNK        -0.0894 
     11 C11        30.2214   24.9638    5.4324 C.ar      12 UNK        -0.0804 
     12 C12        28.8663   24.8014    5.7368 C.ar      12 UNK        -0.0824 
     13 C13        28.1310   23.7622    5.1594 C.ar      12 UNK        -0.0762 
     14 C14        28.7686   22.8570    4.3078 C.ar      12 UNK        -0.0782 
     15 C15        26.6365   23.6395    5.4082 C.3       12 UNK         0.0230 
     16 S16        25.6876   24.2751    3.9882 S.3       12 UNK        -0.2608 
     17 C17        25.8819   26.0825    4.1791 C.3       12 UNK        -0.0989 
     18 CA         27.0661   26.6856    3.3678 C.3       5 UNK         0.0716 
     19 N          27.0708   26.3135    1.9512 N.am      5 UNK        -0.4135 
     20 C          26.1776   26.6607    1.0160 C.2       4 UNK         0.5031 
     21 O          25.1592   27.3155    1.2457 O.2       4 UNK        -0.5229 
     22 CA         26.4962   26.2106   -0.4256 C.3       4 UNK         0.0329 
     23 CB         25.8888   27.1559   -1.4834 C.3       4 UNK        -0.2001 
     24 N          27.9298   26.0056   -0.6894 N.am      4 UNK        -0.4303 
     25 C          28.9178   26.9104   -0.5682 C.2       3 UNK         0.5044 
     26 O          28.7443   28.0464   -0.1270 O.2       3 UNK        -0.5152 
     27 CA         30.3495   26.4803   -0.9479 C.3       3 UNK         0.0319 
     28 CB         31.2262   26.3980    0.3112 C.3       3 UNK        -0.2001 
     29 N          30.4183   25.1994   -1.6558 N.am      3 UNK        -0.4354 
     30 C          30.0196   24.9944   -2.9201 C.2       2 UNK         0.4964 
     31 O          29.6530   25.8975   -3.6724 O.2       2 UNK        -0.5047 
     32 CA         29.9922   23.5380   -3.4311 C.3       2 UNK         0.0288 
     33 CB         31.1906   23.2741   -4.3579 C.3       2 UNK        -0.2113 
     34 N          29.9623   22.5054   -2.3844 N.am      2 UNK        -0.4145 
     35 C          29.0262   22.3825   -1.4305 C.2       1 UNK         0.5006 
     36 O          28.0713   23.1586   -1.3210 O.2       1 UNK        -0.5103 
     37 C          27.2274   28.2069    3.6044 C.2       5 UNK         0.5055 
     38 O          26.8127   28.7000    4.6564 O.2       5 UNK        -0.5220 
     39 N          27.8291   28.9362    2.6504 N.am      6 UNK        -0.4450 
     40 CA         28.1060   30.3682    2.7642 C.3       6 UNK         0.0367 
     41 CB         28.2293   30.9798    1.3586 C.3       6 UNK        -0.1929 
     42 C          29.3538   30.6026    3.6334 C.2       6 UNK         0.5070 
     43 O          30.4672   30.7213    3.1117 O.2       6 UNK        -0.5237 
     44 N          29.1398   30.6230    4.9553 N.am      7 UNK        -0.4739 
     45 CA         30.1531   30.8585    5.9863 C.3       7 UNK         0.0276 
     46 CB         29.5021   30.7404    7.3726 C.3       7 UNK        -0.1927 
     47 C          30.8400   32.2211    5.8210 C.2       7 UNK         0.5013 
     48 O          30.1706   33.2065    5.5004 O.2       7 UNK        -0.5193 
     49 N          32.1667   32.2364    6.0074 N.am      8 UNK        -0.4253 
     50 CA         33.1125   33.3447    5.7991 C.3       8 UNK         0.0242 
     51 CB         32.7870   34.5536    6.6985 C.3       8 UNK        -0.2000 
     52 C          33.2746   33.7725    4.3269 C.2       8 UNK         0.4948 
     53 O          34.4010   34.0288    3.9017 O.2       8 UNK        -0.5275 
     54 N          32.1673   33.8319    3.5775 N.am      9 UNK        -0.4246 
     55 CA         32.1115   34.1897    2.1616 C.3       9 UNK         0.0261 
     56 CB         30.6507   34.4395    1.7565 C.3       9 UNK        -0.1959 
     57 C          32.7629   33.1414    1.2450 C.2       9 UNK         0.5033 
     58 O          33.5218   33.5254    0.3531 O.2       9 UNK        -0.5390 
     59 N          32.4609   31.8550    1.4720 N.am      10 UNK        -0.4215 
     60 CA         32.9906   30.7339    0.6948 C.3       10 UNK         0.0240 
     61 CB         31.8596   30.0583   -0.0976 C.3       10 UNK        -0.1982 
     62 C          33.7164   29.7331    1.6003 C.2       10 UNK         0.4970 
     63 O          34.9045   29.4944    1.3812 O.2       10 UNK        -0.4916 
     64 N          33.0125   29.1697    2.5937 N.am      11 UNK        -0.4279 
     65 CA         33.5694   28.1657    3.5217 C.3       11 UNK         0.1003 
     66 C          34.2387   28.7572    4.7971 C.2       11 UNK         0.5709 
     67 N          34.3823   30.0712    4.9229 N.am      11 UNK        -0.7358 
     68 O          34.6631   28.0123    5.6771 O.2       11 UNK        -0.4999 
     69 C69        32.5748   27.0100    3.8138 C.3       12 UNK        -0.0954 
     70 S70        31.0923   27.4930    4.7590 S.3       12 UNK        -0.2268 
     71 C71        30.9865   26.1545    5.9900 C.3       12 UNK         0.0203 
     72 H72        25.6418   19.8861    1.9242 H         1 UNK         0.0888 
     73 H73        26.2481   21.5114    2.2540 H         1 UNK         0.0888 
     74 H74        24.9889   21.2718    1.0450 H         1 UNK         0.0888 
     75 H75        28.2890   21.7885    1.3818 H         1 UNK         0.3017 
     76 H76        29.1969   20.3076   -0.9822 H         1 UNK         0.0873 
     77 H77        30.7538   20.3954    0.8904 H         1 UNK         0.0745 
     78 H78        31.4242   21.2859   -0.4282 H         1 UNK         0.0745 
     79 H79        31.8113   21.8235    3.3527 H         1 UNK         0.0705 
     80 H80        30.2572   21.0931    3.0272 H         1 UNK         0.0705 
     81 H81        31.8956   24.1723    4.3334 H         1 UNK         0.1334 
     82 H82        28.3719   25.5140    6.3831 H         1 UNK         0.1417 
     83 H83        28.1970   22.0577    3.8573 H         1 UNK         0.1562 
     84 H84        26.3436   24.1631    6.3195 H         1 UNK         0.0748 
     85 H85        26.3792   22.5907    5.5636 H         1 UNK         0.0748 
     86 H86        25.9908   26.3071    5.2417 H         1 UNK         0.0940 
     87 H87        24.9444   26.5511    3.8747 H         1 UNK         0.0940 
     88 H88        27.9884   26.2604    3.7558 H         1 UNK         0.0703 
     89 H89        27.8625   25.7640    1.6519 H         1 UNK         0.3081 
     90 H90        26.0263   25.2332   -0.5452 H         1 UNK         0.0719 
     91 H91        26.2709   28.1724   -1.3817 H         1 UNK         0.0809 
     92 H92        26.1105   26.8138   -2.4943 H         1 UNK         0.0809 
     93 H93        24.8033   27.2052   -1.3905 H         1 UNK         0.0809 
     94 H94        28.1695   25.0713   -1.0122 H         1 UNK         0.2990 
     95 H95        30.7573   27.2550   -1.6005 H         1 UNK         0.0690 
     96 H96        32.2590   26.1499    0.0664 H         1 UNK         0.0788 
     97 H97        30.8547   25.6513    1.0125 H         1 UNK         0.0788 
     98 H98        31.2401   27.3487    0.8426 H         1 UNK         0.0788 
     99 H99        30.7112   24.4003   -1.1121 H         1 UNK         0.2993 
    100 H100       29.0766   23.4295   -4.0164 H         1 UNK         0.0949 
    101 H101       32.1376   23.3372   -3.8201 H         1 UNK         0.0767 
    102 H102       31.1287   22.2876   -4.8178 H         1 UNK         0.0767 
    103 H103       31.2272   24.0037   -5.1684 H         1 UNK         0.0767 
    104 H104       30.7177   21.8354   -2.4056 H         1 UNK         0.3013 
    105 H105       28.1512   28.4843    1.8000 H         1 UNK         0.3121 
    106 H106       27.2576   30.8558    3.2497 H         1 UNK         0.0774 
    107 H107       27.3325   30.7929    0.7679 H         1 UNK         0.0815 
    108 H108       28.3580   32.0599    1.4142 H         1 UNK         0.0815 
    109 H109       29.0753   30.5765    0.8062 H         1 UNK         0.0815 
    110 H110       28.1975   30.4465    5.2785 H         1 UNK         0.2987 
    111 H111       30.9097   30.0793    5.8917 H         1 UNK         0.0949 
    112 H112       29.0609   29.7542    7.5201 H         1 UNK         0.0806 
    113 H113       30.2378   30.8870    8.1646 H         1 UNK         0.0806 
    114 H114       28.7177   31.4852    7.5136 H         1 UNK         0.0806 
    115 H115       32.6049   31.3577    6.2484 H         1 UNK         0.3010 
    116 H116       34.0839   32.9613    6.1160 H         1 UNK         0.0829 
    117 H117       32.7275   34.2628    7.7473 H         1 UNK         0.0813 
    118 H118       33.5628   35.3161    6.6172 H         1 UNK         0.0813 
    119 H119       31.8428   35.0264    6.4273 H         1 UNK         0.0813 
    120 H120       31.2863   33.6249    4.0420 H         1 UNK         0.3038 
    121 H121       32.6612   35.1248    2.0340 H         1 UNK         0.0769 
    122 H122       30.5723   34.6827    0.6959 H         1 UNK         0.0811 
    123 H123       30.2230   35.2736    2.3131 H         1 UNK         0.0811 
    124 H124       30.0303   33.5632    1.9404 H         1 UNK         0.0811 
    125 H125       31.7942   31.6185    2.2060 H         1 UNK         0.3204 
    126 H126       33.7251   31.0896   -0.0308 H         1 UNK         0.0748 
    127 H127       32.2454   29.2411   -0.7080 H         1 UNK         0.0771 
    128 H128       31.0971   29.6435    0.5596 H         1 UNK         0.0771 
    129 H129       31.3714   30.7635   -0.7704 H         1 UNK         0.0771 
    130 H130       32.0516   29.4518    2.7574 H         1 UNK         0.2980 
    131 H131       34.4011   27.6791    3.0092 H         1 UNK         0.0545 
    132 H132       34.8743   30.4283    5.7261 H         1 UNK         0.3459 
    133 H133       34.1101   30.6828    4.1716 H         1 UNK         0.3459 
    134 H134       33.0994   26.2129    4.3417 H         1 UNK         0.0616 
    135 H135       32.2444   26.5591    2.8799 H         1 UNK         0.0616 
    136 H136       31.9820   25.8530    6.3185 H         1 UNK         0.0634 
    137 H137       30.4821   26.5426    6.8761 H         1 UNK         0.0634 
@<TRIPOS>BOND
     1    1    2 1    
     2    1   72 1    
     3    1   73 1    
     4    1   74 1    
     5    2    3 2    
     6    2    4 am   BACKBONE|DICT|INTERRES
     7    4    5 1    
     8    4   75 1    
     9    5    6 1    
    10    5   35 1    
    11    5   76 1    
    12    6    7 1    
    13    6   77 1    
    14    6   78 1    
    15    7    8 1    
    16    8    9 1    
    17    8   79 1    
    18    8   80 1    
    19    9   10 ar   
    20    9   14 ar   
    21   10   11 ar   
    22   10   81 1    
    23   11   12 ar   
    24   11   71 1    
    25   12   13 ar   
    26   12   82 1    
    27   13   14 ar   
    28   13   15 1    
    29   14   83 1    
    30   15   16 1    
    31   15   84 1    
    32   15   85 1    
    33   16   17 1    
    34   17   18 1    
    35   17   86 1    
    36   17   87 1    
    37   18   19 1    
    38   18   37 1    
    39   18   88 1    
    40   19   20 am   BACKBONE|DICT|INTERRES
    41   19   89 1    
    42   20   21 2    
    43   20   22 1    
    44   22   23 1    
    45   22   24 1    
    46   22   90 1    
    47   23   91 1    
    48   23   92 1    
    49   23   93 1    
    50   24   25 am   BACKBONE|DICT|INTERRES
    51   24   94 1    
    52   25   26 2    
    53   25   27 1    
    54   27   28 1    
    55   27   29 1    
    56   27   95 1    
    57   28   96 1    
    58   28   97 1    
    59   28   98 1    
    60   29   30 am   BACKBONE|DICT|INTERRES
    61   29   99 1    
    62   30   31 2    
    63   30   32 1    
    64   32   33 1    
    65   32   34 1    
    66   32  100 1    
    67   33  101 1    
    68   33  102 1    
    69   33  103 1    
    70   34   35 am   BACKBONE|DICT|INTERRES
    71   34  104 1    
    72   35   36 2    
    73   37   38 2    
    74   37   39 am   BACKBONE|DICT|INTERRES
    75   39   40 1    
    76   39  105 1    
    77   40   41 1    
    78   40   42 1    
    79   40  106 1    
    80   41  107 1    
    81   41  108 1    
    82   41  109 1    
    83   42   43 2    
    84   42   44 am   BACKBONE|DICT|INTERRES
    85   44   45 1    
    86   44  110 1    
    87   45   46 1    
    88   45   47 1    
    89   45  111 1    
    90   46  112 1    
    91   46  113 1    
    92   46  114 1    
    93   47   48 2    
    94   47   49 am   BACKBONE|DICT|INTERRES
    95   49   50 1    
    96   49  115 1    
    97   50   51 1    
    98   50   52 1    
    99   50  116 1    
   100   51  117 1    
   101   51  118 1    
   102   51  119 1    
   103   52   53 2    
   104   52   54 am   BACKBONE|DICT|INTERRES
   105   54   55 1    
   106   54  120 1    
   107   55   56 1    
   108   55   57 1    
   109   55  121 1    
   110   56  122 1    
   111   56  123 1    
   112   56  124 1    
   113   57   58 2    
   114   57   59 am   BACKBONE|DICT|INTERRES
   115   59   60 1    
   116   59  125 1    
   117   60   61 1    
   118   60   62 1    
   119   60  126 1    
   120   61  127 1    
   121   61  128 1    
   122   61  129 1    
   123   62   63 2    
   124   62   64 am   BACKBONE|DICT|INTERRES
   125   64   65 1    
   126   64  130 1    
   127   65   66 1    
   128   65   69 1    
   129   65  131 1    
   130   66   67 am   BACKBONE|DICT|INTERRES
   131   66   68 2    
   132   67  132 1    
   133   67  133 1    
   134   69   70 1    
   135   69  134 1    
   136   69  135 1    
   137   70   71 1    
   138   71  136 1    
   139   71  137 1    
@<TRIPOS>SUBSTRUCTURE
     1 UNK         1 GROUP             0       ****    0 ROOT    
