@<TRIPOS>MOLECULE
3R136
137   139    1
SMALL
USER_CHARGES


@<TRIPOS>ATOM
      1 CA         25.7100   22.9907    0.5362 C.3       0 UNK        -0.1979 
      2 C          26.7651   22.0481   -0.0225 C.2       0 UNK         0.4864 
      3 O          26.4715   21.2497   -0.9141 O.2       0 UNK        -0.5359 
      4 N          28.0027   22.1462    0.4756 N.am      1 UNK        -0.4318 
      5 CA         29.1779   21.3719    0.0572 C.3       1 UNK         0.0824 
      6 C6         30.2168   21.2383    1.2071 C.3       12 UNK        -0.0944 
      7 S7         30.5177   22.7775    2.1537 S.3       12 UNK        -0.2672 
      8 C8         29.7631   22.3293    3.7492 C.3       12 UNK         0.0333 
      9 C9         29.8436   23.4607    4.7637 C.ar      12 UNK        -0.0807 
     10 C10        31.0870   23.8932    5.2318 C.ar      12 UNK        -0.0894 
     11 C11        31.1748   24.9081    6.1886 C.ar      12 UNK        -0.0804 
     12 C12        30.0030   25.4762    6.6981 C.ar      12 UNK        -0.0824 
     13 C13        28.7514   25.0453    6.2454 C.ar      12 UNK        -0.0762 
     14 C14        28.6784   24.0443    5.2712 C.ar      12 UNK        -0.0782 
     15 C15        27.4742   25.6337    6.8293 C.3       12 UNK         0.0230 
     16 S16        26.6626   26.7884    5.6799 S.3       12 UNK        -0.2608 
     17 C17        27.8237   28.1969    5.6830 C.3       12 UNK        -0.0989 
     18 CA         28.7801   28.1841    4.4609 C.3       5 UNK         0.0716 
     19 N          28.0178   28.1446    3.2067 N.am      5 UNK        -0.4135 
     20 C          28.4924   27.9843    1.9656 C.2       4 UNK         0.5031 
     21 O          29.6910   27.9101    1.6834 O.2       4 UNK        -0.5229 
     22 CA         27.4159   27.8985    0.8633 C.3       4 UNK         0.0329 
     23 CB         26.6582   29.2277    0.7075 C.3       4 UNK        -0.2001 
     24 N          27.9582   27.5222   -0.4429 N.am      4 UNK        -0.4303 
     25 C          28.3374   26.2871   -0.7840 C.2       3 UNK         0.5044 
     26 O          28.2536   25.3068   -0.0369 O.2       3 UNK        -0.5152 
     27 CA         28.8683   26.1166   -2.2154 C.3       3 UNK         0.0319 
     28 CB         30.2479   26.7787   -2.4032 C.3       3 UNK        -0.2001 
     29 N          28.9429   24.6874   -2.4830 N.am      3 UNK        -0.4354 
     30 C          29.1391   24.0693   -3.6514 C.2       2 UNK         0.4964 
     31 O          29.2947   24.6651   -4.7182 O.2       2 UNK        -0.5047 
     32 CA         29.1215   22.5245   -3.6452 C.3       2 UNK         0.0288 
     33 CB         30.3515   21.9276   -4.3615 C.3       2 UNK        -0.2113 
     34 N          28.9279   21.9270   -2.3130 N.am      2 UNK        -0.4145 
     35 C          29.7631   21.9292   -1.2612 C.2       1 UNK         0.5006 
     36 O          30.9070   22.3849   -1.2958 O.2       1 UNK        -0.5103 
     37 C          29.7900   29.3519    4.5454 C.2       5 UNK         0.5055 
     38 O          29.8142   30.2226    3.6730 O.2       5 UNK        -0.5220 
     39 N          30.6020   29.3496    5.6146 N.am      6 UNK        -0.4450 
     40 CA         31.7111   30.2694    5.9095 C.3       6 UNK         0.0367 
     41 CB         32.1463   30.0919    7.3753 C.3       6 UNK        -0.1929 
     42 C          31.4363   31.7557    5.6268 C.2       6 UNK         0.5070 
     43 O          32.2008   32.3898    4.9007 O.2       6 UNK        -0.5237 
     44 N          30.3358   32.2729    6.1844 N.am      7 UNK        -0.4739 
     45 CA         29.9268   33.6737    6.0495 C.3       7 UNK         0.0276 
     46 CB         28.9522   34.0134    7.1899 C.3       7 UNK        -0.1927 
     47 C          29.2957   34.0153    4.6866 C.2       7 UNK         0.5013 
     48 O          29.1542   35.2002    4.3806 O.2       7 UNK        -0.5193 
     49 N          28.8989   32.9953    3.9151 N.am      8 UNK        -0.4253 
     50 CA         28.1745   33.1390    2.6549 C.3       8 UNK         0.0242 
     51 CB         27.0044   32.1439    2.6357 C.3       8 UNK        -0.2000 
     52 C          29.0881   32.9436    1.4373 C.2       8 UNK         0.4948 
     53 O          29.0450   33.7724    0.5269 O.2       8 UNK        -0.5275 
     54 N          29.8857   31.8658    1.4247 N.am      9 UNK        -0.4246 
     55 CA         30.7411   31.4947    0.2915 C.3       9 UNK         0.0261 
     56 CB         29.9284   30.7033   -0.7520 C.3       9 UNK        -0.1959 
     57 C          32.0235   30.7564    0.7124 C.2       9 UNK         0.5033 
     58 O          32.5923   30.0369   -0.1101 O.2       9 UNK        -0.5390 
     59 N          32.4842   30.9677    1.9552 N.am      10 UNK        -0.4215 
     60 CA         33.7498   30.4642    2.5089 C.3       10 UNK         0.0240 
     61 CB         34.9543   31.1238    1.8004 C.3       10 UNK        -0.1982 
     62 C          33.8523   28.9245    2.5634 C.2       10 UNK         0.4970 
     63 O          34.9325   28.3833    2.3207 O.2       10 UNK        -0.4916 
     64 N          32.7412   28.2585    2.9107 N.am      11 UNK        -0.4279 
     65 CA         32.6156   26.7962    3.0574 C.3       11 UNK         0.1003 
     66 C          32.7619   26.0660    1.6949 C.2       11 UNK         0.5709 
     67 N          31.8437   26.3059    0.7721 N.am      11 UNK        -0.7358 
     68 O          33.6910   25.2940    1.4658 O.2       11 UNK        -0.4999 
     69 C69        33.5266   26.1989    4.1704 C.3       12 UNK        -0.0954 
     70 S70        33.1289   26.8488    5.8256 S.3       12 UNK        -0.2268 
     71 C71        32.5344   25.3654    6.6962 C.3       12 UNK         0.0203 
     72 H72        26.1244   23.6621    1.2886 H         1 UNK         0.0888 
     73 H73        25.2917   23.6003   -0.2641 H         1 UNK         0.0888 
     74 H74        24.9011   22.4221    0.9938 H         1 UNK         0.0888 
     75 H75        28.2075   22.8773    1.1446 H         1 UNK         0.3017 
     76 H76        28.8464   20.3579   -0.1782 H         1 UNK         0.0873 
     77 H77        29.8709   20.4682    1.8981 H         1 UNK         0.0745 
     78 H78        31.1727   20.8652    0.8344 H         1 UNK         0.0745 
     79 H79        30.2730   21.4542    4.1548 H         1 UNK         0.0705 
     80 H80        28.7258   22.0345    3.5819 H         1 UNK         0.0705 
     81 H81        31.9866   23.4311    4.8491 H         1 UNK         0.1334 
     82 H82        30.0678   26.2442    7.4565 H         1 UNK         0.1417 
     83 H83        27.7101   23.7096    4.9238 H         1 UNK         0.1562 
     84 H84        27.6718   26.1371    7.7770 H         1 UNK         0.0748 
     85 H85        26.7796   24.8242    7.0587 H         1 UNK         0.0748 
     86 H86        28.3720   28.1896    6.6262 H         1 UNK         0.0940 
     87 H87        27.2336   29.1159    5.6918 H         1 UNK         0.0940 
     88 H88        29.3702   27.2663    4.4893 H         1 UNK         0.0703 
     89 H89        27.0171   28.1920    3.3251 H         1 UNK         0.3081 
     90 H90        26.6992   27.1302    1.1622 H         1 UNK         0.0719 
     91 H91        27.3337   30.0575    0.5000 H         1 UNK         0.0809 
     92 H92        25.9321   29.1783   -0.1043 H         1 UNK         0.0809 
     93 H93        26.0992   29.4719    1.6107 H         1 UNK         0.0809 
     94 H94        28.0785   28.2673   -1.1121 H         1 UNK         0.2990 
     95 H95        28.1474   26.5658   -2.9013 H         1 UNK         0.0690 
     96 H96        31.0242   26.2479   -1.8544 H         1 UNK         0.0788 
     97 H97        30.5401   26.7910   -3.4531 H         1 UNK         0.0788 
     98 H98        30.2514   27.8136   -2.0596 H         1 UNK         0.0788 
     99 H99        28.8033   24.1295   -1.6490 H         1 UNK         0.2993 
    100 H100       28.2401   22.2410   -4.2225 H         1 UNK         0.0949 
    101 H101       31.2864   22.2375   -3.8939 H         1 UNK         0.0767 
    102 H102       30.3204   20.8380   -4.3633 H         1 UNK         0.0767 
    103 H103       30.3909   22.2512   -5.4024 H         1 UNK         0.0767 
    104 H104       27.9950   21.5622   -2.1342 H         1 UNK         0.3013 
    105 H105       30.5104   28.5837    6.2651 H         1 UNK         0.3121 
    106 H106       32.5465   29.9639    5.2808 H         1 UNK         0.0774 
    107 H107       32.9812   30.7515    7.6170 H         1 UNK         0.0815 
    108 H108       31.3387   30.3226    8.0710 H         1 UNK         0.0815 
    109 H109       32.4774   29.0750    7.5804 H         1 UNK         0.0815 
    110 H110       29.7526   31.6761    6.7534 H         1 UNK         0.2987 
    111 H111       30.8119   34.3048    6.1592 H         1 UNK         0.0949 
    112 H112       28.6524   35.0616    7.1494 H         1 UNK         0.0806 
    113 H113       28.0431   33.4130    7.1368 H         1 UNK         0.0806 
    114 H114       29.4091   33.8483    8.1658 H         1 UNK         0.0806 
    115 H115       29.1301   32.0505    4.2003 H         1 UNK         0.3010 
    116 H116       27.7476   34.1419    2.5815 H         1 UNK         0.0829 
    117 H117       26.2778   32.3779    3.4137 H         1 UNK         0.0813 
    118 H118       26.4771   32.1741    1.6812 H         1 UNK         0.0813 
    119 H119       27.3454   31.1222    2.7993 H         1 UNK         0.0813 
    120 H120       29.8535   31.2126    2.2088 H         1 UNK         0.3038 
    121 H121       31.0928   32.4104   -0.1884 H         1 UNK         0.0769 
    122 H122       30.5125   30.5299   -1.6567 H         1 UNK         0.0811 
    123 H123       29.0255   31.2354   -1.0510 H         1 UNK         0.0811 
    124 H124       29.6399   29.7298   -0.3611 H         1 UNK         0.0811 
    125 H125       31.9550   31.5754    2.5675 H         1 UNK         0.3204 
    126 H126       33.7853   30.7975    3.5447 H         1 UNK         0.0748 
    127 H127       35.8900   30.8715    2.3009 H         1 UNK         0.0771 
    128 H128       35.0436   30.7986    0.7633 H         1 UNK         0.0771 
    129 H129       34.8708   32.2106    1.8057 H         1 UNK         0.0771 
    130 H130       31.8797   28.7787    2.9940 H         1 UNK         0.2980 
    131 H131       31.5863   26.6137    3.3698 H         1 UNK         0.0545 
    132 H132       31.9016   25.8341   -0.1136 H         1 UNK         0.3459 
    133 H133       31.0632   26.9255    0.9828 H         1 UNK         0.3459 
    134 H134       33.4433   25.1124    4.1859 H         1 UNK         0.0616 
    135 H135       34.5784   26.4025    3.9681 H         1 UNK         0.0616 
    136 H136       33.2717   24.5668    6.6006 H         1 UNK         0.0634 
    137 H137       32.4694   25.5901    7.7618 H         1 UNK         0.0634 
@<TRIPOS>BOND
     1    1    2 1    
     2    1   72 1    
     3    1   73 1    
     4    1   74 1    
     5    2    3 2    
     6    2    4 am   BACKBONE|DICT|INTERRES
     7    4    5 1    
     8    4   75 1    
     9    5    6 1    
    10    5   35 1    
    11    5   76 1    
    12    6    7 1    
    13    6   77 1    
    14    6   78 1    
    15    7    8 1    
    16    8    9 1    
    17    8   79 1    
    18    8   80 1    
    19    9   10 ar   
    20    9   14 ar   
    21   10   11 ar   
    22   10   81 1    
    23   11   12 ar   
    24   11   71 1    
    25   12   13 ar   
    26   12   82 1    
    27   13   14 ar   
    28   13   15 1    
    29   14   83 1    
    30   15   16 1    
    31   15   84 1    
    32   15   85 1    
    33   16   17 1    
    34   17   18 1    
    35   17   86 1    
    36   17   87 1    
    37   18   19 1    
    38   18   37 1    
    39   18   88 1    
    40   19   20 am   BACKBONE|DICT|INTERRES
    41   19   89 1    
    42   20   21 2    
    43   20   22 1    
    44   22   23 1    
    45   22   24 1    
    46   22   90 1    
    47   23   91 1    
    48   23   92 1    
    49   23   93 1    
    50   24   25 am   BACKBONE|DICT|INTERRES
    51   24   94 1    
    52   25   26 2    
    53   25   27 1    
    54   27   28 1    
    55   27   29 1    
    56   27   95 1    
    57   28   96 1    
    58   28   97 1    
    59   28   98 1    
    60   29   30 am   BACKBONE|DICT|INTERRES
    61   29   99 1    
    62   30   31 2    
    63   30   32 1    
    64   32   33 1    
    65   32   34 1    
    66   32  100 1    
    67   33  101 1    
    68   33  102 1    
    69   33  103 1    
    70   34   35 am   BACKBONE|DICT|INTERRES
    71   34  104 1    
    72   35   36 2    
    73   37   38 2    
    74   37   39 am   BACKBONE|DICT|INTERRES
    75   39   40 1    
    76   39  105 1    
    77   40   41 1    
    78   40   42 1    
    79   40  106 1    
    80   41  107 1    
    81   41  108 1    
    82   41  109 1    
    83   42   43 2    
    84   42   44 am   BACKBONE|DICT|INTERRES
    85   44   45 1    
    86   44  110 1    
    87   45   46 1    
    88   45   47 1    
    89   45  111 1    
    90   46  112 1    
    91   46  113 1    
    92   46  114 1    
    93   47   48 2    
    94   47   49 am   BACKBONE|DICT|INTERRES
    95   49   50 1    
    96   49  115 1    
    97   50   51 1    
    98   50   52 1    
    99   50  116 1    
   100   51  117 1    
   101   51  118 1    
   102   51  119 1    
   103   52   53 2    
   104   52   54 am   BACKBONE|DICT|INTERRES
   105   54   55 1    
   106   54  120 1    
   107   55   56 1    
   108   55   57 1    
   109   55  121 1    
   110   56  122 1    
   111   56  123 1    
   112   56  124 1    
   113   57   58 2    
   114   57   59 am   BACKBONE|DICT|INTERRES
   115   59   60 1    
   116   59  125 1    
   117   60   61 1    
   118   60   62 1    
   119   60  126 1    
   120   61  127 1    
   121   61  128 1    
   122   61  129 1    
   123   62   63 2    
   124   62   64 am   BACKBONE|DICT|INTERRES
   125   64   65 1    
   126   64  130 1    
   127   65   66 1    
   128   65   69 1    
   129   65  131 1    
   130   66   67 am   BACKBONE|DICT|INTERRES
   131   66   68 2    
   132   67  132 1    
   133   67  133 1    
   134   69   70 1    
   135   69  134 1    
   136   69  135 1    
   137   70   71 1    
   138   71  136 1    
   139   71  137 1    
@<TRIPOS>SUBSTRUCTURE
     1 UNK         1 GROUP             0       ****    0 ROOT    
