@<TRIPOS>MOLECULE
3R136
137   139    1
SMALL
USER_CHARGES


@<TRIPOS>ATOM
      1 CA         24.5273   28.8212    5.1406 C.3       0 UNK        -0.1979 
      2 C          25.3028   27.9707    4.1463 C.2       0 UNK         0.4864 
      3 O          25.3182   28.2894    2.9583 O.2       0 UNK        -0.5359 
      4 N          25.9423   26.8938    4.6239 N.am      1 UNK        -0.4318 
      5 CA         26.7164   25.9076    3.8591 C.3       1 UNK         0.0824 
      6 C6         27.9578   26.5074    3.1411 C.3       12 UNK        -0.0944 
      7 S7         29.1962   25.2286    2.7319 S.3       12 UNK        -0.2672 
      8 C8         30.6186   25.7082    3.7672 C.3       12 UNK         0.0333 
      9 C9         31.7390   26.2773    2.9124 C.ar      12 UNK        -0.0807 
     10 C10        32.9010   25.5338    2.6916 C.ar      12 UNK        -0.0894 
     11 C11        33.9212   26.0325    1.8763 C.ar      12 UNK        -0.0804 
     12 C12        33.7601   27.2775    1.2603 C.ar      12 UNK        -0.0824 
     13 C13        32.6100   28.0396    1.4892 C.ar      12 UNK        -0.0762 
     14 C14        31.6102   27.5404    2.3301 C.ar      12 UNK        -0.0782 
     15 C15        32.4604   29.4069    0.8377 C.3       12 UNK         0.0230 
     16 S16        31.7441   29.2933   -0.8326 S.3       12 UNK        -0.2608 
     17 C17        29.9714   29.0973   -0.4515 C.3       12 UNK        -0.0989 
     18 CA         29.2534   28.0168   -1.3023 C.3       5 UNK         0.0716 
     19 N          29.8114   26.6826   -1.1109 N.am      5 UNK        -0.4135 
     20 C          30.5751   26.0166   -1.9820 C.2       4 UNK         0.5031 
     21 O          31.0423   26.5010   -3.0140 O.2       4 UNK        -0.5229 
     22 CA         30.8212   24.5300   -1.6680 C.3       4 UNK         0.0329 
     23 CB         32.0551   24.3660   -0.7690 C.3       4 UNK        -0.2001 
     24 N          29.6703   23.8749   -1.0350 N.am      4 UNK        -0.4303 
     25 C          28.4687   23.7104   -1.6077 C.2       3 UNK         0.5044 
     26 O          28.1969   24.0730   -2.7530 O.2       3 UNK        -0.5152 
     27 CA         27.3778   23.0436   -0.7645 C.3       3 UNK         0.0319 
     28 CB         27.9113   22.1587    0.3837 C.3       3 UNK        -0.2001 
     29 N          26.5055   24.0859   -0.2337 N.am      3 UNK        -0.4354 
     30 C          25.2159   23.9214    0.0798 C.2       2 UNK         0.4964 
     31 O          24.5908   22.8754   -0.1097 O.2       2 UNK        -0.5047 
     32 CA         24.5289   25.1282    0.7486 C.3       2 UNK         0.0288 
     33 CB         23.1003   24.8188    1.2437 C.3       2 UNK        -0.2113 
     34 N          25.3368   25.6937    1.8360 N.am      2 UNK        -0.4145 
     35 C          25.8202   25.0690    2.9214 C.2       1 UNK         0.5006 
     36 O          25.5841   23.8944    3.2107 O.2       1 UNK        -0.5103 
     37 C          27.7624   27.9460   -0.9231 C.2       5 UNK         0.5055 
     38 O          27.3174   26.9589   -0.3264 O.2       5 UNK        -0.5220 
     39 N          27.0344   29.0254   -1.2312 N.am      6 UNK        -0.4450 
     40 CA         25.6660   29.2854   -0.7730 C.3       6 UNK         0.0367 
     41 CB         24.8056   29.7084   -1.9781 C.3       6 UNK        -0.1929 
     42 C          25.6501   30.3421    0.3530 C.2       6 UNK         0.5070 
     43 O          24.6491   31.0392    0.5260 O.2       6 UNK        -0.5237 
     44 N          26.7615   30.4543    1.0891 N.am      7 UNK        -0.4739 
     45 CA         26.9349   31.2802    2.2779 C.3       7 UNK         0.0276 
     46 CB         27.5161   32.6482    1.8833 C.3       7 UNK        -0.1927 
     47 C          27.8796   30.5289    3.2225 C.2       7 UNK         0.5013 
     48 O          28.7385   29.7817    2.7468 O.2       7 UNK        -0.5193 
     49 N          27.7061   30.7285    4.5344 N.am      8 UNK        -0.4253 
     50 CA         28.5088   30.0799    5.5722 C.3       8 UNK         0.0242 
     51 CB         27.8040   30.2280    6.9308 C.3       8 UNK        -0.2000 
     52 C          29.9290   30.6636    5.6313 C.2       8 UNK         0.4948 
     53 O          30.0823   31.8876    5.6331 O.2       8 UNK        -0.5275 
     54 N          30.9278   29.7805    5.7178 N.am      9 UNK        -0.4246 
     55 CA         32.3486   30.0874    5.8468 C.3       9 UNK         0.0261 
     56 CB         32.9081   30.6419    4.5204 C.3       9 UNK        -0.1959 
     57 C          33.0760   28.7953    6.2364 C.2       9 UNK         0.5033 
     58 O          32.5164   27.7077    6.0741 O.2       9 UNK        -0.5390 
     59 N          34.3232   28.9369    6.6983 N.am      10 UNK        -0.4215 
     60 CA         35.2470   27.8344    6.9883 C.3       10 UNK         0.0240 
     61 CB         35.8830   28.0639    8.3732 C.3       10 UNK        -0.1982 
     62 C          36.2988   27.7021    5.8686 C.2       10 UNK         0.4970 
     63 O          37.4777   27.4858    6.1540 O.2       10 UNK        -0.4916 
     64 N          35.8529   27.8719    4.6166 N.am      11 UNK        -0.4279 
     65 CA         36.6577   27.8612    3.3814 C.3       11 UNK         0.1003 
     66 C          37.6710   29.0386    3.2387 C.2       11 UNK         0.5709 
     67 N          37.5656   30.1042    4.0239 N.am      11 UNK        -0.7358 
     68 O          38.5474   29.0072    2.3777 O.2       11 UNK        -0.4999 
     69 C69        37.3008   26.4797    3.0592 C.3       12 UNK        -0.0954 
     70 S70        36.1664   25.0535    3.1736 S.3       12 UNK        -0.2268 
     71 C71        35.1787   25.2049    1.6494 C.3       12 UNK         0.0203 
     72 H72        24.6468   28.4661    6.1639 H         1 UNK         0.0888 
     73 H73        24.8685   29.8546    5.0970 H         1 UNK         0.0888 
     74 H74        23.4655   28.8041    4.8965 H         1 UNK         0.0888 
     75 H75        25.8561   26.6825    5.6085 H         1 UNK         0.3017 
     76 H76        27.0909   25.2171    4.6171 H         1 UNK         0.0873 
     77 H77        27.6828   27.0450    2.2341 H         1 UNK         0.0745 
     78 H78        28.4200   27.2587    3.7791 H         1 UNK         0.0745 
     79 H79        30.3350   26.4296    4.5339 H         1 UNK         0.0705 
     80 H80        30.9641   24.8246    4.3057 H         1 UNK         0.0705 
     81 H81        33.0136   24.5604    3.1492 H         1 UNK         0.1334 
     82 H82        34.5331   27.6602    0.6080 H         1 UNK         0.1417 
     83 H83        30.7197   28.1216    2.5228 H         1 UNK         0.1562 
     84 H84        33.4376   29.8871    0.7678 H         1 UNK         0.0748 
     85 H85        31.8454   30.0639    1.4554 H         1 UNK         0.0748 
     86 H86        29.5116   30.0766   -0.5950 H         1 UNK         0.0940 
     87 H87        29.8520   28.8685    0.6055 H         1 UNK         0.0940 
     88 H88        29.3087   28.2927   -2.3576 H         1 UNK         0.0703 
     89 H89        29.4215   26.1802   -0.3253 H         1 UNK         0.3081 
     90 H90        31.0158   24.0212   -2.6144 H         1 UNK         0.0719 
     91 H91        31.8862   24.8057    0.2132 H         1 UNK         0.0809 
     92 H92        32.3124   23.3161   -0.6290 H         1 UNK         0.0809 
     93 H93        32.9264   24.8602   -1.2014 H         1 UNK         0.0809 
     94 H94        29.7985   23.5457   -0.0887 H         1 UNK         0.2990 
     95 H95        26.8071   22.4091   -1.4462 H         1 UNK         0.0690 
     96 H96        28.6293   21.4239    0.0170 H         1 UNK         0.0788 
     97 H97        27.0999   21.6030    0.8543 H         1 UNK         0.0788 
     98 H98        28.3961   22.7439    1.1652 H         1 UNK         0.0788 
     99 H99        26.9154   25.0103   -0.1208 H         1 UNK         0.2993 
    100 H100       24.4564   25.9013   -0.0178 H         1 UNK         0.0949 
    101 H101       22.6349   25.7011    1.6833 H         1 UNK         0.0767 
    102 H102       22.4634   24.4925    0.4206 H         1 UNK         0.0767 
    103 H103       23.0946   24.0275    1.9942 H         1 UNK         0.0767 
    104 H104       25.5505   26.6840    1.7609 H         1 UNK         0.3013 
    105 H105       27.4820   29.7889   -1.7198 H         1 UNK         0.3121 
    106 H106       25.2297   28.3776   -0.3514 H         1 UNK         0.0774 
    107 H107       25.1493   30.6495   -2.4088 H         1 UNK         0.0815 
    108 H108       23.7626   29.8427   -1.6883 H         1 UNK         0.0815 
    109 H109       24.8252   28.9521   -2.7628 H         1 UNK         0.0815 
    110 H110       27.5120   29.7912    0.9485 H         1 UNK         0.2987 
    111 H111       25.9712   31.4119    2.7754 H         1 UNK         0.0949 
    112 H112       26.8485   33.1816    1.2064 H         1 UNK         0.0806 
    113 H113       27.6618   33.2795    2.7608 H         1 UNK         0.0806 
    114 H114       28.4833   32.5462    1.3893 H         1 UNK         0.0806 
    115 H115       27.0257   31.4063    4.8450 H         1 UNK         0.3010 
    116 H116       28.5722   29.0155    5.3383 H         1 UNK         0.0829 
    117 H117       27.6877   31.2752    7.2135 H         1 UNK         0.0813 
    118 H118       26.8152   29.7705    6.9202 H         1 UNK         0.0813 
    119 H119       28.3757   29.7399    7.7213 H         1 UNK         0.0813 
    120 H120       30.7365   28.7855    5.7459 H         1 UNK         0.3038 
    121 H121       32.4795   30.8214    6.6447 H         1 UNK         0.0769 
    122 H122       33.9631   30.9019    4.6113 H         1 UNK         0.0811 
    123 H123       32.8213   29.9104    3.7181 H         1 UNK         0.0811 
    124 H124       32.3849   31.5447    4.2056 H         1 UNK         0.0811 
    125 H125       34.7007   29.8698    6.7921 H         1 UNK         0.3204 
    126 H126       34.7070   26.8858    7.0240 H         1 UNK         0.0748 
    127 H127       36.5320   27.2318    8.6502 H         1 UNK         0.0771 
    128 H128       36.4868   28.9720    8.3961 H         1 UNK         0.0771 
    129 H129       35.1213   28.1479    9.1486 H         1 UNK         0.0771 
    130 H130       34.8632   28.0165    4.4836 H         1 UNK         0.2980 
    131 H131       35.9403   28.0631    2.5903 H         1 UNK         0.0545 
    132 H132       38.2196   30.8628    3.9124 H         1 UNK         0.3459 
    133 H133       36.8536   30.1514    4.7326 H         1 UNK         0.3459 
    134 H134       38.1313   26.2897    3.7408 H         1 UNK         0.0616 
    135 H135       37.7339   26.4839    2.0575 H         1 UNK         0.0616 
    136 H136       35.7892   25.6217    0.8471 H         1 UNK         0.0634 
    137 H137       34.8864   24.2058    1.3229 H         1 UNK         0.0634 
@<TRIPOS>BOND
     1    1    2 1    
     2    1   72 1    
     3    1   73 1    
     4    1   74 1    
     5    2    3 2    
     6    2    4 am   BACKBONE|DICT|INTERRES
     7    4    5 1    
     8    4   75 1    
     9    5    6 1    
    10    5   35 1    
    11    5   76 1    
    12    6    7 1    
    13    6   77 1    
    14    6   78 1    
    15    7    8 1    
    16    8    9 1    
    17    8   79 1    
    18    8   80 1    
    19    9   10 ar   
    20    9   14 ar   
    21   10   11 ar   
    22   10   81 1    
    23   11   12 ar   
    24   11   71 1    
    25   12   13 ar   
    26   12   82 1    
    27   13   14 ar   
    28   13   15 1    
    29   14   83 1    
    30   15   16 1    
    31   15   84 1    
    32   15   85 1    
    33   16   17 1    
    34   17   18 1    
    35   17   86 1    
    36   17   87 1    
    37   18   19 1    
    38   18   37 1    
    39   18   88 1    
    40   19   20 am   BACKBONE|DICT|INTERRES
    41   19   89 1    
    42   20   21 2    
    43   20   22 1    
    44   22   23 1    
    45   22   24 1    
    46   22   90 1    
    47   23   91 1    
    48   23   92 1    
    49   23   93 1    
    50   24   25 am   BACKBONE|DICT|INTERRES
    51   24   94 1    
    52   25   26 2    
    53   25   27 1    
    54   27   28 1    
    55   27   29 1    
    56   27   95 1    
    57   28   96 1    
    58   28   97 1    
    59   28   98 1    
    60   29   30 am   BACKBONE|DICT|INTERRES
    61   29   99 1    
    62   30   31 2    
    63   30   32 1    
    64   32   33 1    
    65   32   34 1    
    66   32  100 1    
    67   33  101 1    
    68   33  102 1    
    69   33  103 1    
    70   34   35 am   BACKBONE|DICT|INTERRES
    71   34  104 1    
    72   35   36 2    
    73   37   38 2    
    74   37   39 am   BACKBONE|DICT|INTERRES
    75   39   40 1    
    76   39  105 1    
    77   40   41 1    
    78   40   42 1    
    79   40  106 1    
    80   41  107 1    
    81   41  108 1    
    82   41  109 1    
    83   42   43 2    
    84   42   44 am   BACKBONE|DICT|INTERRES
    85   44   45 1    
    86   44  110 1    
    87   45   46 1    
    88   45   47 1    
    89   45  111 1    
    90   46  112 1    
    91   46  113 1    
    92   46  114 1    
    93   47   48 2    
    94   47   49 am   BACKBONE|DICT|INTERRES
    95   49   50 1    
    96   49  115 1    
    97   50   51 1    
    98   50   52 1    
    99   50  116 1    
   100   51  117 1    
   101   51  118 1    
   102   51  119 1    
   103   52   53 2    
   104   52   54 am   BACKBONE|DICT|INTERRES
   105   54   55 1    
   106   54  120 1    
   107   55   56 1    
   108   55   57 1    
   109   55  121 1    
   110   56  122 1    
   111   56  123 1    
   112   56  124 1    
   113   57   58 2    
   114   57   59 am   BACKBONE|DICT|INTERRES
   115   59   60 1    
   116   59  125 1    
   117   60   61 1    
   118   60   62 1    
   119   60  126 1    
   120   61  127 1    
   121   61  128 1    
   122   61  129 1    
   123   62   63 2    
   124   62   64 am   BACKBONE|DICT|INTERRES
   125   64   65 1    
   126   64  130 1    
   127   65   66 1    
   128   65   69 1    
   129   65  131 1    
   130   66   67 am   BACKBONE|DICT|INTERRES
   131   66   68 2    
   132   67  132 1    
   133   67  133 1    
   134   69   70 1    
   135   69  134 1    
   136   69  135 1    
   137   70   71 1    
   138   71  136 1    
   139   71  137 1    
@<TRIPOS>SUBSTRUCTURE
     1 UNK         1 GROUP             0       ****    0 ROOT    
