@<TRIPOS>MOLECULE
3R136
137   139    1
SMALL
USER_CHARGES


@<TRIPOS>ATOM
      1 CA         26.3411   21.6562    2.7825 C.3       0 UNK        -0.1979 
      2 C          26.9252   21.8234    1.3887 C.2       0 UNK         0.4864 
      3 O          26.1725   21.8808    0.4153 O.2       0 UNK        -0.5359 
      4 N          28.2577   21.8904    1.2826 N.am      1 UNK        -0.4318 
      5 CA         28.9812   22.0273    0.0134 C.3       1 UNK         0.0824 
      6 C6         30.4716   21.6079    0.1208 C.3       12 UNK        -0.0944 
      7 S7         30.7254   20.0288    1.0080 S.3       12 UNK        -0.2672 
      8 C8         32.2083   20.3689    2.0181 C.3       12 UNK         0.0333 
      9 C9         32.0826   21.6349    2.8574 C.ar      12 UNK        -0.0807 
     10 C10        32.9176   22.7269    2.6032 C.ar      12 UNK        -0.0894 
     11 C11        32.7958   23.9071    3.3418 C.ar      12 UNK        -0.0804 
     12 C12        31.8350   23.9853    4.3568 C.ar      12 UNK        -0.0824 
     13 C13        30.9985   22.8951    4.6265 C.ar      12 UNK        -0.0762 
     14 C14        31.1299   21.7226    3.8757 C.ar      12 UNK        -0.0782 
     15 C15        29.9637   22.9613    5.7407 C.3       12 UNK         0.0230 
     16 S16        28.3250   23.4569    5.1166 S.3       12 UNK        -0.2608 
     17 C17        28.4541   25.2751    5.0964 C.3       12 UNK        -0.0989 
     18 CA         28.7080   25.8458    3.6709 C.3       5 UNK         0.0716 
     19 N          27.6819   25.5141    2.6795 N.am      5 UNK        -0.4135 
     20 C          26.3858   25.8494    2.7182 C.2       4 UNK         0.5031 
     21 O          25.8299   26.3854    3.6794 O.2       4 UNK        -0.5229 
     22 CA         25.5965   25.5440    1.4333 C.3       4 UNK         0.0329 
     23 CB         24.0886   25.8590    1.5392 C.3       4 UNK        -0.2001 
     24 N          26.2147   26.1971    0.2741 N.am      4 UNK        -0.4303 
     25 C          26.3192   27.5108    0.0216 C.2       3 UNK         0.5044 
     26 O          25.7690   28.3791    0.6997 O.2       3 UNK        -0.5152 
     27 CA         27.1716   27.9417   -1.1966 C.3       3 UNK         0.0319 
     28 CB         27.8548   29.3006   -0.9552 C.3       3 UNK        -0.2001 
     29 N          28.1932   26.9648   -1.5993 N.am      3 UNK        -0.4354 
     30 C          27.9599   25.8398   -2.2913 C.2       2 UNK         0.4964 
     31 O          26.8399   25.5050   -2.6780 O.2       2 UNK        -0.5047 
     32 CA         29.1455   24.8956   -2.5722 C.3       2 UNK         0.0288 
     33 CB         30.5359   25.5182   -2.3291 C.3       2 UNK        -0.2113 
     34 N          29.0351   23.6288   -1.8381 N.am      2 UNK        -0.4145 
     35 C          28.8897   23.4728   -0.5127 C.2       1 UNK         0.5006 
     36 O          28.7494   24.4041    0.2872 O.2       1 UNK        -0.5103 
     37 C          29.0293   27.3581    3.6367 C.2       5 UNK         0.5055 
     38 O          28.8452   27.9955    2.5973 O.2       5 UNK        -0.5220 
     39 N          29.5986   27.8888    4.7284 N.am      6 UNK        -0.4450 
     40 CA         30.1463   29.2411    4.8378 C.3       6 UNK         0.0367 
     41 CB         31.0406   29.3209    6.0878 C.3       6 UNK        -0.1929 
     42 C          29.0628   30.3337    4.8234 C.2       6 UNK         0.5070 
     43 O          28.6723   30.8359    5.8783 O.2       6 UNK        -0.5237 
     44 N          28.6045   30.6856    3.6169 N.am      7 UNK        -0.4739 
     45 CA         27.7048   31.8117    3.3506 C.3       7 UNK         0.0276 
     46 CB         27.1271   31.6626    1.9346 C.3       7 UNK        -0.1927 
     47 C          28.3933   33.1815    3.5069 C.2       7 UNK         0.5013 
     48 O          27.7050   34.1816    3.7158 O.2       7 UNK        -0.5193 
     49 N          29.7270   33.2003    3.4029 N.am      8 UNK        -0.4253 
     50 CA         30.5920   34.3565    3.6170 C.3       8 UNK         0.0242 
     51 CB         30.9796   34.9618    2.2513 C.3       8 UNK        -0.2000 
     52 C          31.7912   33.9065    4.4690 C.2       8 UNK         0.4948 
     53 O          31.6304   33.0400    5.3307 O.2       8 UNK        -0.5275 
     54 N          32.9783   34.4745    4.2130 N.am      9 UNK        -0.4246 
     55 CA         34.2420   34.1168    4.8732 C.3       9 UNK         0.0261 
     56 CB         35.3095   35.1631    4.5116 C.3       9 UNK        -0.1959 
     57 C          34.7466   32.6964    4.5419 C.2       9 UNK         0.5033 
     58 O          35.5861   32.1690    5.2733 O.2       9 UNK        -0.5390 
     59 N          34.2304   32.1076    3.4589 N.am      10 UNK        -0.4215 
     60 CA         34.4527   30.7358    3.0216 C.3       10 UNK         0.0240 
     61 CB         35.6449   30.6917    2.0480 C.3       10 UNK        -0.1982 
     62 C          33.1621   30.2360    2.3591 C.2       10 UNK         0.4970 
     63 O          32.2450   31.0302    2.1237 O.2       10 UNK        -0.4916 
     64 N          33.1151   28.9309    2.0713 N.am      11 UNK        -0.4279 
     65 CA         32.0050   28.2774    1.3603 C.3       11 UNK         0.1003 
     66 C          31.9561   28.5343   -0.1729 C.2       11 UNK         0.5709 
     67 N          32.9962   29.0820   -0.7903 N.am      11 UNK        -0.7358 
     68 O          30.9435   28.2543   -0.8076 O.2       11 UNK        -0.4999 
     69 C69        31.8946   26.7705    1.7178 C.3       12 UNK        -0.0954 
     70 S70        33.4167   25.8137    1.4099 S.3       12 UNK        -0.2268 
     71 C71        33.7274   25.0777    3.0497 C.3       12 UNK         0.0203 
     72 H72        27.0781   21.2585    3.4797 H         1 UNK         0.0888 
     73 H73        25.9878   22.6142    3.1624 H         1 UNK         0.0888 
     74 H74        25.4983   20.9658    2.7595 H         1 UNK         0.0888 
     75 H75        28.8347   21.8684    2.1108 H         1 UNK         0.3017 
     76 H76        28.4988   21.3692   -0.7129 H         1 UNK         0.0873 
     77 H77        30.9032   21.4998   -0.8759 H         1 UNK         0.0745 
     78 H78        31.0479   22.3988    0.6005 H         1 UNK         0.0745 
     79 H79        32.3887   19.5189    2.6775 H         1 UNK         0.0705 
     80 H80        33.0730   20.4293    1.3553 H         1 UNK         0.0705 
     81 H81        33.6589   22.6675    1.8178 H         1 UNK         0.1334 
     82 H82        31.7423   24.8905    4.9406 H         1 UNK         0.1417 
     83 H83        30.4854   20.8775    4.0781 H         1 UNK         0.1562 
     84 H84        30.2910   23.6325    6.5358 H         1 UNK         0.0748 
     85 H85        29.8703   21.9787    6.2058 H         1 UNK         0.0748 
     86 H86        29.2497   25.5533    5.7872 H         1 UNK         0.0940 
     87 H87        27.5381   25.6883    5.5213 H         1 UNK         0.0940 
     88 H88        29.6101   25.3658    3.2915 H         1 UNK         0.0703 
     89 H89        28.0455   25.1246    1.8109 H         1 UNK         0.3081 
     90 H90        25.6872   24.4727    1.2587 H         1 UNK         0.0719 
     91 H91        23.9021   26.9073    1.7732 H         1 UNK         0.0809 
     92 H92        23.5683   25.6238    0.6109 H         1 UNK         0.0809 
     93 H93        23.6266   25.2670    2.3300 H         1 UNK         0.0809 
     94 H94        26.7166   25.5790   -0.3500 H         1 UNK         0.2990 
     95 H95        26.4784   28.0673   -2.0308 H         1 UNK         0.0690 
     96 H96        28.4729   29.5947   -1.8036 H         1 UNK         0.0788 
     97 H97        28.4907   29.2734   -0.0690 H         1 UNK         0.0788 
     98 H98        27.1182   30.0905   -0.8046 H         1 UNK         0.0788 
     99 H99        29.1404   27.1614   -1.2918 H         1 UNK         0.2993 
    100 H100       29.0807   24.6495   -3.6334 H         1 UNK         0.0949 
    101 H101       31.3254   24.8609   -2.6935 H         1 UNK         0.0767 
    102 H102       30.6455   26.4674   -2.8552 H         1 UNK         0.0767 
    103 H103       30.7255   25.6930   -1.2699 H         1 UNK         0.0767 
    104 H104       29.1051   22.7976   -2.4087 H         1 UNK         0.3013 
    105 H105       29.6864   27.3152    5.5534 H         1 UNK         0.3121 
    106 H106       30.7902   29.4145    3.9755 H         1 UNK         0.0774 
    107 H107       31.4706   30.3185    6.1924 H         1 UNK         0.0815 
    108 H108       30.4831   29.1100    7.0012 H         1 UNK         0.0815 
    109 H109       31.8716   28.6178    6.0286 H         1 UNK         0.0815 
    110 H110       28.8819   30.1161    2.8249 H         1 UNK         0.2987 
    111 H111       26.8818   31.7721    4.0675 H         1 UNK         0.0949 
    112 H112       27.9086   31.6928    1.1744 H         1 UNK         0.0806 
    113 H113       26.5881   30.7214    1.8250 H         1 UNK         0.0806 
    114 H114       26.4233   32.4658    1.7123 H         1 UNK         0.0806 
    115 H115       30.2052   32.3175    3.2795 H         1 UNK         0.3010 
    116 H116       30.0626   35.1129    4.2003 H         1 UNK         0.0829 
    117 H117       30.0916   35.2040    1.6667 H         1 UNK         0.0813 
    118 H118       31.5399   35.8902    2.3663 H         1 UNK         0.0813 
    119 H119       31.5834   34.2725    1.6591 H         1 UNK         0.0813 
    120 H120       33.0283   35.1822    3.4939 H         1 UNK         0.3038 
    121 H121       34.0776   34.1550    5.9523 H         1 UNK         0.0769 
    122 H122       35.0054   36.1643    4.8174 H         1 UNK         0.0811 
    123 H123       35.5090   35.1831    3.4395 H         1 UNK         0.0811 
    124 H124       36.2537   34.9471    5.0139 H         1 UNK         0.0811 
    125 H125       33.4919   32.5806    2.9538 H         1 UNK         0.3204 
    126 H126       34.6564   30.1029    3.8882 H         1 UNK         0.0748 
    127 H127       36.5515   31.0733    2.5184 H         1 UNK         0.0771 
    128 H128       35.8579   29.6724    1.7242 H         1 UNK         0.0771 
    129 H129       35.4576   31.2892    1.1547 H         1 UNK         0.0771 
    130 H130       33.9094   28.3429    2.2768 H         1 UNK         0.2980 
    131 H131       31.0916   28.7455    1.7239 H         1 UNK         0.0545 
    132 H132       32.9421   29.2511   -1.7817 H         1 UNK         0.3459 
    133 H133       33.8320   29.3161   -0.2814 H         1 UNK         0.3459 
    134 H134       31.0673   26.2986    1.1840 H         1 UNK         0.0616 
    135 H135       31.6483   26.6827    2.7748 H         1 UNK         0.0616 
    136 H136       33.6494   25.8472    3.8193 H         1 UNK         0.0634 
    137 H137       34.7582   24.7220    3.0799 H         1 UNK         0.0634 
@<TRIPOS>BOND
     1    1    2 1    
     2    1   72 1    
     3    1   73 1    
     4    1   74 1    
     5    2    3 2    
     6    2    4 am   BACKBONE|DICT|INTERRES
     7    4    5 1    
     8    4   75 1    
     9    5    6 1    
    10    5   35 1    
    11    5   76 1    
    12    6    7 1    
    13    6   77 1    
    14    6   78 1    
    15    7    8 1    
    16    8    9 1    
    17    8   79 1    
    18    8   80 1    
    19    9   10 ar   
    20    9   14 ar   
    21   10   11 ar   
    22   10   81 1    
    23   11   12 ar   
    24   11   71 1    
    25   12   13 ar   
    26   12   82 1    
    27   13   14 ar   
    28   13   15 1    
    29   14   83 1    
    30   15   16 1    
    31   15   84 1    
    32   15   85 1    
    33   16   17 1    
    34   17   18 1    
    35   17   86 1    
    36   17   87 1    
    37   18   19 1    
    38   18   37 1    
    39   18   88 1    
    40   19   20 am   BACKBONE|DICT|INTERRES
    41   19   89 1    
    42   20   21 2    
    43   20   22 1    
    44   22   23 1    
    45   22   24 1    
    46   22   90 1    
    47   23   91 1    
    48   23   92 1    
    49   23   93 1    
    50   24   25 am   BACKBONE|DICT|INTERRES
    51   24   94 1    
    52   25   26 2    
    53   25   27 1    
    54   27   28 1    
    55   27   29 1    
    56   27   95 1    
    57   28   96 1    
    58   28   97 1    
    59   28   98 1    
    60   29   30 am   BACKBONE|DICT|INTERRES
    61   29   99 1    
    62   30   31 2    
    63   30   32 1    
    64   32   33 1    
    65   32   34 1    
    66   32  100 1    
    67   33  101 1    
    68   33  102 1    
    69   33  103 1    
    70   34   35 am   BACKBONE|DICT|INTERRES
    71   34  104 1    
    72   35   36 2    
    73   37   38 2    
    74   37   39 am   BACKBONE|DICT|INTERRES
    75   39   40 1    
    76   39  105 1    
    77   40   41 1    
    78   40   42 1    
    79   40  106 1    
    80   41  107 1    
    81   41  108 1    
    82   41  109 1    
    83   42   43 2    
    84   42   44 am   BACKBONE|DICT|INTERRES
    85   44   45 1    
    86   44  110 1    
    87   45   46 1    
    88   45   47 1    
    89   45  111 1    
    90   46  112 1    
    91   46  113 1    
    92   46  114 1    
    93   47   48 2    
    94   47   49 am   BACKBONE|DICT|INTERRES
    95   49   50 1    
    96   49  115 1    
    97   50   51 1    
    98   50   52 1    
    99   50  116 1    
   100   51  117 1    
   101   51  118 1    
   102   51  119 1    
   103   52   53 2    
   104   52   54 am   BACKBONE|DICT|INTERRES
   105   54   55 1    
   106   54  120 1    
   107   55   56 1    
   108   55   57 1    
   109   55  121 1    
   110   56  122 1    
   111   56  123 1    
   112   56  124 1    
   113   57   58 2    
   114   57   59 am   BACKBONE|DICT|INTERRES
   115   59   60 1    
   116   59  125 1    
   117   60   61 1    
   118   60   62 1    
   119   60  126 1    
   120   61  127 1    
   121   61  128 1    
   122   61  129 1    
   123   62   63 2    
   124   62   64 am   BACKBONE|DICT|INTERRES
   125   64   65 1    
   126   64  130 1    
   127   65   66 1    
   128   65   69 1    
   129   65  131 1    
   130   66   67 am   BACKBONE|DICT|INTERRES
   131   66   68 2    
   132   67  132 1    
   133   67  133 1    
   134   69   70 1    
   135   69  134 1    
   136   69  135 1    
   137   70   71 1    
   138   71  136 1    
   139   71  137 1    
@<TRIPOS>SUBSTRUCTURE
     1 UNK         1 GROUP             0       ****    0 ROOT    
