@<TRIPOS>MOLECULE
3R136
137   139    1
SMALL
USER_CHARGES


@<TRIPOS>ATOM
      1 CA         31.1922   24.4358   -3.4172 C.3       0 UNK        -0.1979 
      2 C          30.2547   24.5604   -2.2270 C.2       0 UNK         0.4864 
      3 O          29.2783   25.3111   -2.2972 O.2       0 UNK        -0.5359 
      4 N          30.5347   23.8203   -1.1412 N.am      1 UNK        -0.4318 
      5 CA         29.8138   23.8362    0.1429 C.3       1 UNK         0.0824 
      6 C6         30.3816   22.8091    1.1546 C.3       12 UNK        -0.0944 
      7 S7         32.1401   23.0911    1.5514 S.3       12 UNK        -0.2672 
      8 C8         32.2316   22.5465    3.2909 C.3       12 UNK         0.0333 
      9 C9         31.9921   23.6873    4.2734 C.ar      12 UNK        -0.0807 
     10 C10        33.0743   24.4292    4.7604 C.ar      12 UNK        -0.0894 
     11 C11        32.8762   25.4628    5.6818 C.ar      12 UNK        -0.0804 
     12 C12        31.5747   25.7494    6.1069 C.ar      12 UNK        -0.0824 
     13 C13        30.4770   25.0352    5.6201 C.ar      12 UNK        -0.0762 
     14 C14        30.6990   23.9870    4.7156 C.ar      12 UNK        -0.0782 
     15 C15        29.0927   25.4388    6.1337 C.3       12 UNK         0.0230 
     16 S16        27.6502   24.6432    5.3433 S.3       12 UNK        -0.2608 
     17 C17        27.6462   25.2608    3.6208 C.3       12 UNK        -0.0989 
     18 CA         27.9145   26.7646    3.3424 C.3       5 UNK         0.0716 
     19 N          28.0724   26.9919    1.8929 N.am      5 UNK        -0.4135 
     20 C          28.5522   28.1127    1.3270 C.2       4 UNK         0.5031 
     21 O          28.9400   29.0839    1.9739 O.2       4 UNK        -0.5229 
     22 CA         28.6051   28.2005   -0.2088 C.3       4 UNK         0.0329 
     23 CB         30.0460   28.0651   -0.7233 C.3       4 UNK        -0.2001 
     24 N          27.7561   27.2482   -0.9261 N.am      4 UNK        -0.4303 
     25 C          26.4184   27.3157   -0.9827 C.2       3 UNK         0.5044 
     26 O          25.7467   28.0726   -0.2807 O.2       3 UNK        -0.5152 
     27 CA         25.7156   26.4022   -1.9993 C.3       3 UNK         0.0319 
     28 CB         25.8532   26.9733   -3.4202 C.3       3 UNK        -0.2001 
     29 N          26.2753   25.0516   -1.9645 N.am      3 UNK        -0.4354 
     30 C          25.6091   23.9613   -1.5590 C.2       2 UNK         0.4964 
     31 O          24.4004   23.9410   -1.3223 O.2       2 UNK        -0.5047 
     32 CA         26.4283   22.6706   -1.3474 C.3       2 UNK         0.0288 
     33 CB         26.3494   21.7759   -2.5952 C.3       2 UNK        -0.2113 
     34 N          27.8390   22.8850   -0.9998 N.am      2 UNK        -0.4145 
     35 C          28.2884   23.6486    0.0089 C.2       1 UNK         0.5006 
     36 O          27.5494   24.2520    0.7841 O.2       1 UNK        -0.5103 
     37 C          26.8506   27.6898    3.9866 C.2       5 UNK         0.5055 
     38 O          26.8170   27.8230    5.2103 O.2       5 UNK        -0.5220 
     39 N          26.0240   28.3560    3.1652 N.am      6 UNK        -0.4450 
     40 CA         25.1026   29.4166    3.5822 C.3       6 UNK         0.0367 
     41 CB         24.1635   29.7424    2.4091 C.3       6 UNK        -0.1929 
     42 C          25.8041   30.6989    4.0831 C.2       6 UNK         0.5070 
     43 O          25.1375   31.5437    4.6823 O.2       6 UNK        -0.5237 
     44 N          27.1122   30.8374    3.8325 N.am      7 UNK        -0.4739 
     45 CA         27.9515   31.9525    4.2618 C.3       7 UNK         0.0276 
     46 CB         28.0193   32.9846    3.1173 C.3       7 UNK        -0.1927 
     47 C          29.3420   31.4255    4.6575 C.2       7 UNK         0.5013 
     48 O          29.5580   30.2133    4.7105 O.2       7 UNK        -0.5193 
     49 N          30.2826   32.3483    4.9003 N.am      8 UNK        -0.4253 
     50 CA         31.7040   32.0483    5.1188 C.3       8 UNK         0.0242 
     51 CB         32.3636   33.2390    5.8342 C.3       8 UNK        -0.2000 
     52 C          32.4647   31.7090    3.8198 C.2       8 UNK         0.4948 
     53 O          33.6365   31.3367    3.8905 O.2       8 UNK        -0.5275 
     54 N          31.8012   31.8398    2.6604 N.am      9 UNK        -0.4246 
     55 CA         32.3341   31.6084    1.3139 C.3       9 UNK         0.0261 
     56 CB         31.2265   31.8898    0.2848 C.3       9 UNK        -0.1959 
     57 C          32.9276   30.2065    1.0894 C.2       9 UNK         0.5033 
     58 O          33.8632   30.0721    0.3001 O.2       9 UNK        -0.5390 
     59 N          32.3932   29.1975    1.7914 N.am      10 UNK        -0.4215 
     60 CA         32.9179   27.8304    1.7947 C.3       10 UNK         0.0240 
     61 CB         31.8801   26.8919    2.4258 C.3       10 UNK        -0.1982 
     62 C          34.2611   27.6885    2.5331 C.2       10 UNK         0.4970 
     63 O          35.0040   26.7503    2.2415 O.2       10 UNK        -0.4916 
     64 N          34.5340   28.5907    3.4826 N.am      11 UNK        -0.4279 
     65 CA         35.7001   28.5482    4.3732 C.3       11 UNK         0.1003 
     66 C          36.8123   29.5309    3.9255 C.2       11 UNK         0.5709 
     67 N          36.4685   30.7016    3.4012 N.am      11 UNK        -0.7358 
     68 O          37.9961   29.2256    4.0485 O.2       11 UNK        -0.4999 
     69 C69        35.3144   28.7992    5.8599 C.3       12 UNK        -0.0954 
     70 S70        33.7453   28.0305    6.3954 S.3       12 UNK        -0.2268 
     71 C71        34.0739   26.2413    6.2266 C.3       12 UNK         0.0203 
     72 H72        32.0057   23.7366   -3.2252 H         1 UNK         0.0888 
     73 H73        30.6426   24.0879   -4.2912 H         1 UNK         0.0888 
     74 H74        31.6267   25.4071   -3.6519 H         1 UNK         0.0888 
     75 H75        31.3558   23.2312   -1.1535 H         1 UNK         0.3017 
     76 H76        29.9624   24.8325    0.5634 H         1 UNK         0.0873 
     77 H77        29.8086   22.8403    2.0823 H         1 UNK         0.0745 
     78 H78        30.2784   21.7926    0.7698 H         1 UNK         0.0745 
     79 H79        33.2206   22.1193    3.4640 H         1 UNK         0.0705 
     80 H80        31.5241   21.7348    3.4671 H         1 UNK         0.0705 
     81 H81        34.0749   24.1973    4.4215 H         1 UNK         0.1334 
     82 H82        31.4100   26.5416    6.8244 H         1 UNK         0.1417 
     83 H83        29.8731   23.3932    4.3548 H         1 UNK         0.1562 
     84 H84        28.9833   26.5217    6.0711 H         1 UNK         0.0748 
     85 H85        29.0509   25.1996    7.1971 H         1 UNK         0.0748 
     86 H86        26.6924   24.9688    3.1772 H         1 UNK         0.0940 
     87 H87        28.4035   24.6762    3.1013 H         1 UNK         0.0940 
     88 H88        28.8711   27.0301    3.7959 H         1 UNK         0.0703 
     89 H89        27.7696   26.2316    1.2929 H         1 UNK         0.3081 
     90 H90        28.2581   29.2023   -0.4718 H         1 UNK         0.0719 
     91 H91        30.4819   27.0996   -0.4688 H         1 UNK         0.0809 
     92 H92        30.0923   28.1751   -1.8069 H         1 UNK         0.0809 
     93 H93        30.6844   28.8378   -0.3000 H         1 UNK         0.0809 
     94 H94        28.2464   26.5806   -1.5189 H         1 UNK         0.2990 
     95 H95        24.6542   26.3883   -1.7428 H         1 UNK         0.0690 
     96 H96        26.8940   27.0074   -3.7455 H         1 UNK         0.0788 
     97 H97        25.4591   27.9892   -3.4732 H         1 UNK         0.0788 
     98 H98        25.2983   26.3725   -4.1409 H         1 UNK         0.0788 
     99 H99        27.2729   24.9697   -2.1328 H         1 UNK         0.2993 
    100 H100       25.9700   22.1378   -0.5116 H         1 UNK         0.0949 
    101 H101       26.8279   22.2436   -3.4568 H         1 UNK         0.0767 
    102 H102       26.8292   20.8118   -2.4248 H         1 UNK         0.0767 
    103 H103       25.3120   21.5750   -2.8674 H         1 UNK         0.0767 
    104 H104       28.5227   22.4470   -1.5997 H         1 UNK         0.3013 
    105 H105       26.1035   28.1975    2.1691 H         1 UNK         0.3121 
    106 H106       24.5003   29.0338    4.4087 H         1 UNK         0.0774 
    107 H107       23.4316   30.5003    2.6916 H         1 UNK         0.0815 
    108 H108       24.7136   30.1246    1.5480 H         1 UNK         0.0815 
    109 H109       23.6081   28.8614    2.0869 H         1 UNK         0.0815 
    110 H110       27.6205   30.0782    3.3882 H         1 UNK         0.2987 
    111 H111       27.5212   32.4208    5.1498 H         1 UNK         0.0949 
    112 H112       28.4933   32.5676    2.2276 H         1 UNK         0.0806 
    113 H113       27.0214   33.3183    2.8316 H         1 UNK         0.0806 
    114 H114       28.5765   33.8763    3.4051 H         1 UNK         0.0806 
    115 H115       30.0293   33.3257    4.8650 H         1 UNK         0.3010 
    116 H116       31.7816   31.1748    5.7705 H         1 UNK         0.0829 
    117 H117       33.4124   33.0315    6.0524 H         1 UNK         0.0813 
    118 H118       32.3307   34.1448    5.2275 H         1 UNK         0.0813 
    119 H119       31.8746   33.4517    6.7851 H         1 UNK         0.0813 
    120 H120       30.8407   32.1421    2.7109 H         1 UNK         0.3038 
    121 H121       33.1408   32.3276    1.1581 H         1 UNK         0.0769 
    122 H122       31.5847   31.7232   -0.7322 H         1 UNK         0.0811 
    123 H123       30.8860   32.9240    0.3398 H         1 UNK         0.0811 
    124 H124       30.3610   31.2429    0.4361 H         1 UNK         0.0811 
    125 H125       31.6011   29.3907    2.3907 H         1 UNK         0.3204 
    126 H126       33.0773   27.5190    0.7601 H         1 UNK         0.0748 
    127 H127       32.2697   25.8773    2.4869 H         1 UNK         0.0771 
    128 H128       31.6108   27.2004    3.4368 H         1 UNK         0.0771 
    129 H129       30.9719   26.8377    1.8340 H         1 UNK         0.0771 
    130 H130       33.9147   29.3806    3.6205 H         1 UNK         0.2980 
    131 H131       36.1437   27.5528    4.3243 H         1 UNK         0.0545 
    132 H132       35.4921   30.9776    3.3792 H         1 UNK         0.3459 
    133 H133       37.1847   31.3436    3.1027 H         1 UNK         0.3459 
    134 H134       36.1139   28.4595    6.5205 H         1 UNK         0.0616 
    135 H135       35.2032   29.8695    6.0461 H         1 UNK         0.0616 
    136 H136       34.9388   26.0842    5.5830 H         1 UNK         0.0634 
    137 H137       34.3422   25.8407    7.2046 H         1 UNK         0.0634 
@<TRIPOS>BOND
     1    1    2 1    
     2    1   72 1    
     3    1   73 1    
     4    1   74 1    
     5    2    3 2    
     6    2    4 am   BACKBONE|DICT|INTERRES
     7    4    5 1    
     8    4   75 1    
     9    5    6 1    
    10    5   35 1    
    11    5   76 1    
    12    6    7 1    
    13    6   77 1    
    14    6   78 1    
    15    7    8 1    
    16    8    9 1    
    17    8   79 1    
    18    8   80 1    
    19    9   10 ar   
    20    9   14 ar   
    21   10   11 ar   
    22   10   81 1    
    23   11   12 ar   
    24   11   71 1    
    25   12   13 ar   
    26   12   82 1    
    27   13   14 ar   
    28   13   15 1    
    29   14   83 1    
    30   15   16 1    
    31   15   84 1    
    32   15   85 1    
    33   16   17 1    
    34   17   18 1    
    35   17   86 1    
    36   17   87 1    
    37   18   19 1    
    38   18   37 1    
    39   18   88 1    
    40   19   20 am   BACKBONE|DICT|INTERRES
    41   19   89 1    
    42   20   21 2    
    43   20   22 1    
    44   22   23 1    
    45   22   24 1    
    46   22   90 1    
    47   23   91 1    
    48   23   92 1    
    49   23   93 1    
    50   24   25 am   BACKBONE|DICT|INTERRES
    51   24   94 1    
    52   25   26 2    
    53   25   27 1    
    54   27   28 1    
    55   27   29 1    
    56   27   95 1    
    57   28   96 1    
    58   28   97 1    
    59   28   98 1    
    60   29   30 am   BACKBONE|DICT|INTERRES
    61   29   99 1    
    62   30   31 2    
    63   30   32 1    
    64   32   33 1    
    65   32   34 1    
    66   32  100 1    
    67   33  101 1    
    68   33  102 1    
    69   33  103 1    
    70   34   35 am   BACKBONE|DICT|INTERRES
    71   34  104 1    
    72   35   36 2    
    73   37   38 2    
    74   37   39 am   BACKBONE|DICT|INTERRES
    75   39   40 1    
    76   39  105 1    
    77   40   41 1    
    78   40   42 1    
    79   40  106 1    
    80   41  107 1    
    81   41  108 1    
    82   41  109 1    
    83   42   43 2    
    84   42   44 am   BACKBONE|DICT|INTERRES
    85   44   45 1    
    86   44  110 1    
    87   45   46 1    
    88   45   47 1    
    89   45  111 1    
    90   46  112 1    
    91   46  113 1    
    92   46  114 1    
    93   47   48 2    
    94   47   49 am   BACKBONE|DICT|INTERRES
    95   49   50 1    
    96   49  115 1    
    97   50   51 1    
    98   50   52 1    
    99   50  116 1    
   100   51  117 1    
   101   51  118 1    
   102   51  119 1    
   103   52   53 2    
   104   52   54 am   BACKBONE|DICT|INTERRES
   105   54   55 1    
   106   54  120 1    
   107   55   56 1    
   108   55   57 1    
   109   55  121 1    
   110   56  122 1    
   111   56  123 1    
   112   56  124 1    
   113   57   58 2    
   114   57   59 am   BACKBONE|DICT|INTERRES
   115   59   60 1    
   116   59  125 1    
   117   60   61 1    
   118   60   62 1    
   119   60  126 1    
   120   61  127 1    
   121   61  128 1    
   122   61  129 1    
   123   62   63 2    
   124   62   64 am   BACKBONE|DICT|INTERRES
   125   64   65 1    
   126   64  130 1    
   127   65   66 1    
   128   65   69 1    
   129   65  131 1    
   130   66   67 am   BACKBONE|DICT|INTERRES
   131   66   68 2    
   132   67  132 1    
   133   67  133 1    
   134   69   70 1    
   135   69  134 1    
   136   69  135 1    
   137   70   71 1    
   138   71  136 1    
   139   71  137 1    
@<TRIPOS>SUBSTRUCTURE
     1 UNK         1 GROUP             0       ****    0 ROOT    
