@<TRIPOS>MOLECULE
3R136
137   139    1
SMALL
USER_CHARGES


@<TRIPOS>ATOM
      1 CA         32.4252   19.1050    1.1161 C.3       0 UNK        -0.1979 
      2 C          32.3171   20.6192    1.2218 C.2       0 UNK         0.4864 
      3 O          33.3404   21.3022    1.2900 O.2       0 UNK        -0.5359 
      4 N          31.0865   21.1467    1.2447 N.am      1 UNK        -0.4318 
      5 CA         30.7879   22.5817    1.3011 C.3       1 UNK         0.0824 
      6 C6         29.3029   22.8528    1.6530 C.3       12 UNK        -0.0944 
      7 S7         28.7360   22.0005    3.1623 S.3       12 UNK        -0.2672 
      8 C8         27.2580   22.9908    3.5894 C.3       12 UNK         0.0333 
      9 C9         27.5105   24.2864    4.3674 C.ar      12 UNK        -0.0807 
     10 C10        28.7811   24.6743    4.8155 C.ar      12 UNK        -0.0894 
     11 C11        28.9556   25.8606    5.5325 C.ar      12 UNK        -0.0804 
     12 C12        27.8483   26.6634    5.8158 C.ar      12 UNK        -0.0824 
     13 C13        26.5723   26.2893    5.3874 C.ar      12 UNK        -0.0762 
     14 C14        26.4124   25.1027    4.6639 C.ar      12 UNK        -0.0782 
     15 C15        25.3708   27.1597    5.7324 C.3       12 UNK         0.0230 
     16 S16        25.3505   28.7120    4.7784 S.3       12 UNK        -0.2608 
     17 C17        24.7003   28.1592    3.1655 C.3       12 UNK        -0.0989 
     18 CA         25.8187   27.7301    2.1852 C.3       5 UNK         0.0716 
     19 N          25.3165   27.1255    0.9622 N.am      5 UNK        -0.4135 
     20 C          24.8405   25.8840    0.8305 C.2       4 UNK         0.5031 
     21 O          24.5132   25.1590    1.7703 O.2       4 UNK        -0.5229 
     22 CA         24.8008   25.3364   -0.6109 C.3       4 UNK         0.0329 
     23 CB         23.4937   25.7393   -1.3123 C.3       4 UNK        -0.2001 
     24 N          25.9542   25.7674   -1.4200 N.am      4 UNK        -0.4303 
     25 C          27.2348   25.5376   -1.0895 C.2       3 UNK         0.5044 
     26 O          27.5731   24.8702   -0.1086 O.2       3 UNK        -0.5152 
     27 CA         28.3198   26.1915   -1.9587 C.3       3 UNK         0.0319 
     28 CB         28.1740   27.7263   -2.0030 C.3       3 UNK        -0.2001 
     29 N          29.6073   25.8310   -1.3744 N.am      3 UNK        -0.4354 
     30 C          30.8033   25.8330   -1.9693 C.2       2 UNK         0.4964 
     31 O          30.9916   26.2109   -3.1260 O.2       2 UNK        -0.5047 
     32 CA         31.9987   25.3296   -1.1342 C.3       2 UNK         0.0288 
     33 CB         32.8635   26.5097   -0.6601 C.3       2 UNK        -0.2113 
     34 N          31.6192   24.5188    0.0316 N.am      2 UNK        -0.4145 
     35 C          31.1515   23.2640   -0.0367 C.2       1 UNK         0.5006 
     36 O          30.9766   22.6601   -1.0989 O.2       1 UNK        -0.5103 
     37 C          26.7145   28.8836    1.7167 C.2       5 UNK         0.5055 
     38 O          26.2162   29.8119    1.0753 O.2       5 UNK        -0.5220 
     39 N          28.0225   28.7773    1.9758 N.am      6 UNK        -0.4450 
     40 CA         29.0199   29.7563    1.5536 C.3       6 UNK         0.0367 
     41 CB         30.3511   29.0394    1.2693 C.3       6 UNK        -0.1929 
     42 C          29.1590   30.8380    2.6314 C.2       6 UNK         0.5070 
     43 O          29.9881   30.7043    3.5318 O.2       6 UNK        -0.5237 
     44 N          28.3491   31.8992    2.5170 N.am      7 UNK        -0.4739 
     45 CA         28.2974   33.0403    3.4443 C.3       7 UNK         0.0276 
     46 CB         27.1714   33.9909    3.0070 C.3       7 UNK        -0.1927 
     47 C          29.6244   33.8117    3.6003 C.2       7 UNK         0.5013 
     48 O          29.8225   34.4722    4.6202 O.2       7 UNK        -0.5193 
     49 N          30.5186   33.6870    2.6096 N.am      8 UNK        -0.4253 
     50 CA         31.8967   34.1850    2.6356 C.3       8 UNK         0.0242 
     51 CB         32.4259   34.2338    1.1912 C.3       8 UNK        -0.2000 
     52 C          32.8466   33.3593    3.5315 C.2       8 UNK         0.4948 
     53 O          34.0028   33.7549    3.6818 O.2       8 UNK        -0.5275 
     54 N          32.3704   32.2282    4.0794 N.am      9 UNK        -0.4246 
     55 CA         33.0854   31.2588    4.9209 C.3       9 UNK         0.0261 
     56 CB         33.6586   31.9116    6.1971 C.3       9 UNK        -0.1959 
     57 C          34.1269   30.4195    4.1566 C.2       9 UNK         0.5033 
     58 O          34.9847   29.7948    4.7838 O.2       9 UNK        -0.5390 
     59 N          34.0033   30.3583    2.8211 N.am      10 UNK        -0.4215 
     60 CA         34.8336   29.5423    1.9239 C.3       10 UNK         0.0240 
     61 CB         34.4853   29.8806    0.4649 C.3       10 UNK        -0.1982 
     62 C          34.7080   28.0260    2.1698 C.2       10 UNK         0.4970 
     63 O          35.6160   27.2760    1.8117 O.2       10 UNK        -0.4916 
     64 N          33.5957   27.6141    2.7890 N.am      11 UNK        -0.4279 
     65 CA         33.3445   26.2678    3.3136 C.3       11 UNK         0.1003 
     66 C          34.2344   25.8572    4.5265 C.2       11 UNK         0.5709 
     67 N          34.9540   26.7680    5.1741 N.am      11 UNK        -0.7358 
     68 O          34.2771   24.6813    4.8789 O.2       11 UNK        -0.4999 
     69 C69        31.8332   26.0757    3.6108 C.3       12 UNK        -0.0954 
     70 S70        31.1729   27.3181    4.7821 S.3       12 UNK        -0.2268 
     71 C71        30.3380   26.2745    6.0125 C.3       12 UNK         0.0203 
     72 H72        31.4460   18.6289    1.0683 H         1 UNK         0.0888 
     73 H73        32.9797   18.8305    0.2193 H         1 UNK         0.0888 
     74 H74        32.9545   18.7054    1.9807 H         1 UNK         0.0888 
     75 H75        30.2816   20.5404    1.1808 H         1 UNK         0.3017 
     76 H76        31.4093   23.0141    2.0886 H         1 UNK         0.0873 
     77 H77        29.1452   23.9242    1.7907 H         1 UNK         0.0745 
     78 H78        28.6485   22.5466    0.8341 H         1 UNK         0.0745 
     79 H79        26.7122   23.2228    2.6727 H         1 UNK         0.0705 
     80 H80        26.5985   22.3603    4.1872 H         1 UNK         0.0705 
     81 H81        29.6452   24.0585    4.6174 H         1 UNK         0.1334 
     82 H82        27.9784   27.5822    6.3718 H         1 UNK         0.1417 
     83 H83        25.4259   24.8115    4.3275 H         1 UNK         0.1562 
     84 H84        25.4076   27.4061    6.7945 H         1 UNK         0.0748 
     85 H85        24.4355   26.6182    5.5822 H         1 UNK         0.0748 
     86 H86        24.1015   28.9643    2.7355 H         1 UNK         0.0940 
     87 H87        24.0069   27.3343    3.3336 H         1 UNK         0.0940 
     88 H88        26.4501   26.9858    2.6715 H         1 UNK         0.0703 
     89 H89        25.5225   27.6538    0.1254 H         1 UNK         0.3081 
     90 H90        24.8338   24.2467   -0.5468 H         1 UNK         0.0719 
     91 H91        23.4156   26.8200   -1.4374 H         1 UNK         0.0809 
     92 H92        23.4140   25.2799   -2.2978 H         1 UNK         0.0809 
     93 H93        22.6266   25.4147   -0.7352 H         1 UNK         0.0809 
     94 H94        25.7529   26.3065   -2.2500 H         1 UNK         0.2990 
     95 H95        28.2513   25.7773   -2.9665 H         1 UNK         0.0690 
     96 H96        27.2443   28.0257   -2.4874 H         1 UNK         0.0788 
     97 H97        28.9860   28.1869   -2.5659 H         1 UNK         0.0788 
     98 H98        28.1775   28.1597   -1.0029 H         1 UNK         0.0788 
     99 H99        29.5167   25.4315   -0.4483 H         1 UNK         0.2993 
    100 H100       32.6069   24.7086   -1.7960 H         1 UNK         0.0949 
    101 H101       33.7790   26.1600   -0.1824 H         1 UNK         0.0767 
    102 H102       33.1616   27.1412   -1.4984 H         1 UNK         0.0767 
    103 H103       32.3335   27.1420    0.0515 H         1 UNK         0.0767 
    104 H104       31.7374   24.9491    0.9352 H         1 UNK         0.3013 
    105 H105       28.3534   28.0154    2.5512 H         1 UNK         0.3121 
    106 H106       28.7053   30.2336    0.6225 H         1 UNK         0.0774 
    107 H107       31.1114   29.7501    0.9456 H         1 UNK         0.0815 
    108 H108       30.7341   28.5291    2.1509 H         1 UNK         0.0815 
    109 H109       30.2383   28.3007    0.4763 H         1 UNK         0.0815 
    110 H110       27.6721   31.8992    1.7652 H         1 UNK         0.2987 
    111 H111       28.0465   32.6436    4.4305 H         1 UNK         0.0949 
    112 H112       27.3506   34.3975    2.0108 H         1 UNK         0.0806 
    113 H113       26.2059   33.4848    2.9959 H         1 UNK         0.0806 
    114 H114       27.0835   34.8352    3.6926 H         1 UNK         0.0806 
    115 H115       30.2493   33.1386    1.8061 H         1 UNK         0.3010 
    116 H116       31.8863   35.2025    3.0321 H         1 UNK         0.0829 
    117 H117       31.8011   34.8667    0.5606 H         1 UNK         0.0813 
    118 H118       33.4354   34.6463    1.1568 H         1 UNK         0.0813 
    119 H119       32.4647   33.2419    0.7394 H         1 UNK         0.0813 
    120 H120       31.4104   31.9611    3.8730 H         1 UNK         0.3038 
    121 H121       32.3243   30.5459    5.2428 H         1 UNK         0.0769 
    122 H122       34.4999   32.5687    5.9765 H         1 UNK         0.0811 
    123 H123       34.0177   31.1536    6.8943 H         1 UNK         0.0811 
    124 H124       32.9010   32.4963    6.7186 H         1 UNK         0.0811 
    125 H125       33.2734   30.9078    2.3937 H         1 UNK         0.3204 
    126 H126       35.8763   29.8135    2.1016 H         1 UNK         0.0748 
    127 H127       35.1171   29.3202   -0.2260 H         1 UNK         0.0771 
    128 H128       33.4501   29.6357    0.2263 H         1 UNK         0.0771 
    129 H129       34.6391   30.9392    0.2540 H         1 UNK         0.0771 
    130 H130       32.9212   28.3102    3.0672 H         1 UNK         0.2980 
    131 H131       33.6062   25.5696    2.5165 H         1 UNK         0.0545 
    132 H132       34.9245   27.7472    4.9136 H         1 UNK         0.3459 
    133 H133       35.5241   26.4769    5.9517 H         1 UNK         0.3459 
    134 H134       31.2592   26.1584    2.6875 H         1 UNK         0.0616 
    135 H135       31.6474   25.0671    3.9817 H         1 UNK         0.0616 
    136 H136       30.2522   26.8366    6.9436 H         1 UNK         0.0634 
    137 H137       30.9496   25.4006    6.2420 H         1 UNK         0.0634 
@<TRIPOS>BOND
     1    1    2 1    
     2    1   72 1    
     3    1   73 1    
     4    1   74 1    
     5    2    3 2    
     6    2    4 am   BACKBONE|DICT|INTERRES
     7    4    5 1    
     8    4   75 1    
     9    5    6 1    
    10    5   35 1    
    11    5   76 1    
    12    6    7 1    
    13    6   77 1    
    14    6   78 1    
    15    7    8 1    
    16    8    9 1    
    17    8   79 1    
    18    8   80 1    
    19    9   10 ar   
    20    9   14 ar   
    21   10   11 ar   
    22   10   81 1    
    23   11   12 ar   
    24   11   71 1    
    25   12   13 ar   
    26   12   82 1    
    27   13   14 ar   
    28   13   15 1    
    29   14   83 1    
    30   15   16 1    
    31   15   84 1    
    32   15   85 1    
    33   16   17 1    
    34   17   18 1    
    35   17   86 1    
    36   17   87 1    
    37   18   19 1    
    38   18   37 1    
    39   18   88 1    
    40   19   20 am   BACKBONE|DICT|INTERRES
    41   19   89 1    
    42   20   21 2    
    43   20   22 1    
    44   22   23 1    
    45   22   24 1    
    46   22   90 1    
    47   23   91 1    
    48   23   92 1    
    49   23   93 1    
    50   24   25 am   BACKBONE|DICT|INTERRES
    51   24   94 1    
    52   25   26 2    
    53   25   27 1    
    54   27   28 1    
    55   27   29 1    
    56   27   95 1    
    57   28   96 1    
    58   28   97 1    
    59   28   98 1    
    60   29   30 am   BACKBONE|DICT|INTERRES
    61   29   99 1    
    62   30   31 2    
    63   30   32 1    
    64   32   33 1    
    65   32   34 1    
    66   32  100 1    
    67   33  101 1    
    68   33  102 1    
    69   33  103 1    
    70   34   35 am   BACKBONE|DICT|INTERRES
    71   34  104 1    
    72   35   36 2    
    73   37   38 2    
    74   37   39 am   BACKBONE|DICT|INTERRES
    75   39   40 1    
    76   39  105 1    
    77   40   41 1    
    78   40   42 1    
    79   40  106 1    
    80   41  107 1    
    81   41  108 1    
    82   41  109 1    
    83   42   43 2    
    84   42   44 am   BACKBONE|DICT|INTERRES
    85   44   45 1    
    86   44  110 1    
    87   45   46 1    
    88   45   47 1    
    89   45  111 1    
    90   46  112 1    
    91   46  113 1    
    92   46  114 1    
    93   47   48 2    
    94   47   49 am   BACKBONE|DICT|INTERRES
    95   49   50 1    
    96   49  115 1    
    97   50   51 1    
    98   50   52 1    
    99   50  116 1    
   100   51  117 1    
   101   51  118 1    
   102   51  119 1    
   103   52   53 2    
   104   52   54 am   BACKBONE|DICT|INTERRES
   105   54   55 1    
   106   54  120 1    
   107   55   56 1    
   108   55   57 1    
   109   55  121 1    
   110   56  122 1    
   111   56  123 1    
   112   56  124 1    
   113   57   58 2    
   114   57   59 am   BACKBONE|DICT|INTERRES
   115   59   60 1    
   116   59  125 1    
   117   60   61 1    
   118   60   62 1    
   119   60  126 1    
   120   61  127 1    
   121   61  128 1    
   122   61  129 1    
   123   62   63 2    
   124   62   64 am   BACKBONE|DICT|INTERRES
   125   64   65 1    
   126   64  130 1    
   127   65   66 1    
   128   65   69 1    
   129   65  131 1    
   130   66   67 am   BACKBONE|DICT|INTERRES
   131   66   68 2    
   132   67  132 1    
   133   67  133 1    
   134   69   70 1    
   135   69  134 1    
   136   69  135 1    
   137   70   71 1    
   138   71  136 1    
   139   71  137 1    
@<TRIPOS>SUBSTRUCTURE
     1 UNK         1 GROUP             0       ****    0 ROOT    
