@<TRIPOS>MOLECULE
3R136
137   139    1
SMALL
USER_CHARGES


@<TRIPOS>ATOM
      1 CA         31.6766   23.0174   -4.1457 C.3       0 UNK        -0.1979 
      2 C          31.5070   23.3041   -2.6606 C.2       0 UNK         0.4864 
      3 O          32.1677   24.2028   -2.1384 O.2       0 UNK        -0.5359 
      4 N          30.6323   22.5434   -1.9912 N.am      1 UNK        -0.4318 
      5 CA         30.2864   22.6866   -0.5749 C.3       1 UNK         0.0824 
      6 C6         30.8950   21.5554    0.3073 C.3       12 UNK        -0.0944 
      7 S7         32.7193   21.6374    0.3731 S.3       12 UNK        -0.2672 
      8 C8         33.0501   22.1185    2.1067 C.3       12 UNK         0.0333 
      9 C9         32.2779   23.3530    2.5644 C.ar      12 UNK        -0.0807 
     10 C10        31.5820   23.3298    3.7772 C.ar      12 UNK        -0.0894 
     11 C11        30.8396   24.4381    4.1973 C.ar      12 UNK        -0.0804 
     12 C12        30.7830   25.5750    3.3860 C.ar      12 UNK        -0.0824 
     13 C13        31.4866   25.6140    2.1785 C.ar      12 UNK        -0.0762 
     14 C14        32.2497   24.5123    1.7841 C.ar      12 UNK        -0.0782 
     15 C15        31.4129   26.8400    1.2890 C.3       12 UNK         0.0230 
     16 S16        30.1428   26.5920    0.0187 S.3       12 UNK        -0.2608 
     17 C17        29.9216   28.2854   -0.6262 C.3       12 UNK        -0.0989 
     18 CA         28.7467   29.0478    0.0433 C.3       5 UNK         0.0716 
     19 N          27.5560   28.2038    0.1335 N.am      5 UNK        -0.4135 
     20 C          26.2857   28.6080    0.2180 C.2       4 UNK         0.5031 
     21 O          25.9354   29.7878    0.1827 O.2       4 UNK        -0.5229 
     22 CA         25.2334   27.4962    0.4077 C.3       4 UNK         0.0329 
     23 CB         24.6641   27.0589   -0.9511 C.3       4 UNK        -0.2001 
     24 N          25.7267   26.3103    1.1265 N.am      4 UNK        -0.4303 
     25 C          26.2463   26.3160    2.3612 C.2       3 UNK         0.5044 
     26 O          26.3964   27.3497    3.0091 O.2       3 UNK        -0.5152 
     27 CA         26.7150   24.9900    2.9935 C.3       3 UNK         0.0319 
     28 CB         25.7689   24.5679    4.1339 C.3       3 UNK        -0.2001 
     29 N          26.9672   23.8619    2.0832 N.am      3 UNK        -0.4354 
     30 C          26.1061   23.1980    1.2968 C.2       2 UNK         0.4964 
     31 O          24.9325   23.5339    1.1347 O.2       2 UNK        -0.5047 
     32 CA         26.6474   21.9405    0.5832 C.3       2 UNK         0.0288 
     33 CB         25.8579   21.5919   -0.6982 C.3       2 UNK        -0.2113 
     34 N          28.0955   21.9770    0.3237 N.am      2 UNK        -0.4145 
     35 C          28.7529   22.8242   -0.4850 C.2       1 UNK         0.5006 
     36 O          28.1935   23.7017   -1.1461 O.2       1 UNK        -0.5103 
     37 C          29.1775   29.6750    1.3889 C.2       5 UNK         0.5055 
     38 O          30.1189   30.4700    1.3775 O.2       5 UNK        -0.5220 
     39 N          28.5240   29.3452    2.5183 N.am      6 UNK        -0.4450 
     40 CA         28.8880   29.8267    3.8625 C.3       6 UNK         0.0367 
     41 CB         28.0327   29.1233    4.9274 C.3       6 UNK        -0.1929 
     42 C          28.8253   31.3561    4.0523 C.2       6 UNK         0.5070 
     43 O          29.4223   31.8786    4.9936 O.2       6 UNK        -0.5237 
     44 N          28.1321   32.0584    3.1485 N.am      7 UNK        -0.4739 
     45 CA         28.1402   33.5182    3.0573 C.3       7 UNK         0.0276 
     46 CB         26.9632   33.9629    2.1732 C.3       7 UNK        -0.1927 
     47 C          29.4660   34.0957    2.5179 C.2       7 UNK         0.5013 
     48 O          29.6848   35.2982    2.6739 O.2       7 UNK        -0.5193 
     49 N          30.3023   33.2651    1.8751 N.am      8 UNK        -0.4253 
     50 CA         31.5146   33.6862    1.1717 C.3       8 UNK         0.0242 
     51 CB         31.2955   33.5115   -0.3412 C.3       8 UNK        -0.2000 
     52 C          32.7837   32.9367    1.6074 C.2       8 UNK         0.4948 
     53 O          33.8488   33.5570    1.6001 O.2       8 UNK        -0.5275 
     54 N          32.6926   31.6391    1.9349 N.am      9 UNK        -0.4246 
     55 CA         33.8617   30.7777    2.1431 C.3       9 UNK         0.0261 
     56 CB         34.2255   30.1116    0.8021 C.3       9 UNK        -0.1959 
     57 C          33.6171   29.7108    3.2168 C.2       9 UNK         0.5033 
     58 O          32.4653   29.4165    3.5410 O.2       9 UNK        -0.5390 
     59 N          34.7236   29.1271    3.7066 N.am      10 UNK        -0.4215 
     60 CA         34.8266   27.9876    4.6292 C.3       10 UNK         0.0240 
     61 CB         34.5109   26.6732    3.8877 C.3       10 UNK        -0.1982 
     62 C          34.0070   28.1786    5.9175 C.2       10 UNK         0.4970 
     63 O          34.4816   28.8577    6.8291 O.2       10 UNK        -0.4916 
     64 N          32.8028   27.5937    5.9641 N.am      11 UNK        -0.4279 
     65 CA         31.8144   27.7767    7.0384 C.3       11 UNK         0.1003 
     66 C          31.2885   29.2346    7.1916 C.2       11 UNK         0.5709 
     67 N          31.4473   30.0993    6.1988 N.am      11 UNK        -0.7358 
     68 O          30.7188   29.5764    8.2251 O.2       11 UNK        -0.4999 
     69 C69        30.6157   26.8035    6.8882 C.3       12 UNK        -0.0954 
     70 S70        31.0904   25.0424    6.8905 S.3       12 UNK        -0.2268 
     71 C71        30.0873   24.3872    5.5187 C.3       12 UNK         0.0203 
     72 H72        31.0407   22.1975   -4.4796 H         1 UNK         0.0888 
     73 H73        31.4233   23.9021   -4.7294 H         1 UNK         0.0888 
     74 H74        32.7115   22.7519   -4.3600 H         1 UNK         0.0888 
     75 H75        30.0956   21.8511   -2.4947 H         1 UNK         0.3017 
     76 H76        30.6630   23.6403   -0.2061 H         1 UNK         0.0873 
     77 H77        30.5189   21.6051    1.3302 H         1 UNK         0.0745 
     78 H78        30.6137   20.5735   -0.0777 H         1 UNK         0.0745 
     79 H79        32.8215   21.2645    2.7462 H         1 UNK         0.0705 
     80 H80        34.1176   22.3105    2.2201 H         1 UNK         0.0705 
     81 H81        31.6127   22.4440    4.3972 H         1 UNK         0.1334 
     82 H82        30.1924   26.4287    3.6889 H         1 UNK         0.1417 
     83 H83        32.7863   24.5419    0.8447 H         1 UNK         0.1562 
     84 H84        32.3773   27.0274    0.8144 H         1 UNK         0.0748 
     85 H85        31.1847   27.7217    1.8875 H         1 UNK         0.0748 
     86 H86        29.7175   28.1928   -1.6940 H         1 UNK         0.0940 
     87 H87        30.8612   28.8389   -0.5643 H         1 UNK         0.0940 
     88 H88        28.5004   29.8929   -0.6031 H         1 UNK         0.0703 
     89 H89        27.7425   27.2110    0.1694 H         1 UNK         0.3081 
     90 H90        24.4202   27.9201    1.0003 H         1 UNK         0.0719 
     91 H91        24.2680   27.9127   -1.5029 H         1 UNK         0.0809 
     92 H92        23.8473   26.3471   -0.8284 H         1 UNK         0.0809 
     93 H93        25.4262   26.5905   -1.5756 H         1 UNK         0.0809 
     94 H94        25.5671   25.4055    0.6977 H         1 UNK         0.2990 
     95 H95        27.6835   25.2127    3.4430 H         1 UNK         0.0690 
     96 H96        26.1510   23.6954    4.6639 H         1 UNK         0.0788 
     97 H97        24.7710   24.3277    3.7656 H         1 UNK         0.0788 
     98 H98        25.6593   25.3680    4.8675 H         1 UNK         0.0788 
     99 H99        27.9165   23.5175    2.0999 H         1 UNK         0.2993 
    100 H100       26.4916   21.1218    1.2875 H         1 UNK         0.0949 
    101 H101       24.8081   21.4013   -0.4715 H         1 UNK         0.0767 
    102 H102       25.8881   22.4013   -1.4283 H         1 UNK         0.0767 
    103 H103       26.2514   20.6943   -1.1752 H         1 UNK         0.0767 
    104 H104       28.6381   21.2838    0.8205 H         1 UNK         0.3013 
    105 H105       27.7477   28.6909    2.4763 H         1 UNK         0.3121 
    106 H106       29.9246   29.5327    4.0240 H         1 UNK         0.0774 
    107 H107       28.3188   29.4395    5.9316 H         1 UNK         0.0815 
    108 H108       26.9729   29.3485    4.8038 H         1 UNK         0.0815 
    109 H109       28.1546   28.0415    4.8855 H         1 UNK         0.0815 
    110 H110       27.6551   31.5533    2.4154 H         1 UNK         0.2987 
    111 H111       27.9916   33.9280    4.0589 H         1 UNK         0.0949 
    112 H112       26.0104   33.6222    2.5789 H         1 UNK         0.0806 
    113 H113       26.9137   35.0508    2.1062 H         1 UNK         0.0806 
    114 H114       27.0536   33.5778    1.1566 H         1 UNK         0.0806 
    115 H115       30.0647   32.2785    1.8066 H         1 UNK         0.3010 
    116 H116       31.7066   34.7451    1.3574 H         1 UNK         0.0829 
    117 H117       30.4613   34.1188   -0.6928 H         1 UNK         0.0813 
    118 H118       32.1787   33.8178   -0.9038 H         1 UNK         0.0813 
    119 H119       31.0864   32.4725   -0.5999 H         1 UNK         0.0813 
    120 H120       31.7912   31.1659    1.9397 H         1 UNK         0.3038 
    121 H121       34.7076   31.3792    2.4828 H         1 UNK         0.0769 
    122 H122       33.4012   29.5068    0.4214 H         1 UNK         0.0811 
    123 H123       35.0925   29.4572    0.9008 H         1 UNK         0.0811 
    124 H124       34.4705   30.8555    0.0438 H         1 UNK         0.0811 
    125 H125       35.6126   29.4886    3.3893 H         1 UNK         0.3204 
    126 H126       35.8705   27.9371    4.9430 H         1 UNK         0.0748 
    127 H127       35.2373   26.4836    3.0975 H         1 UNK         0.0771 
    128 H128       34.5354   25.8148    4.5609 H         1 UNK         0.0771 
    129 H129       33.5287   26.7058    3.4248 H         1 UNK         0.0771 
    130 H130       32.4920   27.0697    5.1603 H         1 UNK         0.2980 
    131 H131       32.3205   27.5383    7.9756 H         1 UNK         0.0545 
    132 H132       31.8782   29.8070    5.3268 H         1 UNK         0.3459 
    133 H133       31.0344   31.0183    6.2649 H         1 UNK         0.3459 
    134 H134       29.9062   26.9416    7.7063 H         1 UNK         0.0616 
    135 H135       30.0682   27.0336    5.9742 H         1 UNK         0.0616 
    136 H136       29.1429   24.9285    5.4476 H         1 UNK         0.0634 
    137 H137       29.8208   23.3549    5.7505 H         1 UNK         0.0634 
@<TRIPOS>BOND
     1    1    2 1    
     2    1   72 1    
     3    1   73 1    
     4    1   74 1    
     5    2    3 2    
     6    2    4 am   BACKBONE|DICT|INTERRES
     7    4    5 1    
     8    4   75 1    
     9    5    6 1    
    10    5   35 1    
    11    5   76 1    
    12    6    7 1    
    13    6   77 1    
    14    6   78 1    
    15    7    8 1    
    16    8    9 1    
    17    8   79 1    
    18    8   80 1    
    19    9   10 ar   
    20    9   14 ar   
    21   10   11 ar   
    22   10   81 1    
    23   11   12 ar   
    24   11   71 1    
    25   12   13 ar   
    26   12   82 1    
    27   13   14 ar   
    28   13   15 1    
    29   14   83 1    
    30   15   16 1    
    31   15   84 1    
    32   15   85 1    
    33   16   17 1    
    34   17   18 1    
    35   17   86 1    
    36   17   87 1    
    37   18   19 1    
    38   18   37 1    
    39   18   88 1    
    40   19   20 am   BACKBONE|DICT|INTERRES
    41   19   89 1    
    42   20   21 2    
    43   20   22 1    
    44   22   23 1    
    45   22   24 1    
    46   22   90 1    
    47   23   91 1    
    48   23   92 1    
    49   23   93 1    
    50   24   25 am   BACKBONE|DICT|INTERRES
    51   24   94 1    
    52   25   26 2    
    53   25   27 1    
    54   27   28 1    
    55   27   29 1    
    56   27   95 1    
    57   28   96 1    
    58   28   97 1    
    59   28   98 1    
    60   29   30 am   BACKBONE|DICT|INTERRES
    61   29   99 1    
    62   30   31 2    
    63   30   32 1    
    64   32   33 1    
    65   32   34 1    
    66   32  100 1    
    67   33  101 1    
    68   33  102 1    
    69   33  103 1    
    70   34   35 am   BACKBONE|DICT|INTERRES
    71   34  104 1    
    72   35   36 2    
    73   37   38 2    
    74   37   39 am   BACKBONE|DICT|INTERRES
    75   39   40 1    
    76   39  105 1    
    77   40   41 1    
    78   40   42 1    
    79   40  106 1    
    80   41  107 1    
    81   41  108 1    
    82   41  109 1    
    83   42   43 2    
    84   42   44 am   BACKBONE|DICT|INTERRES
    85   44   45 1    
    86   44  110 1    
    87   45   46 1    
    88   45   47 1    
    89   45  111 1    
    90   46  112 1    
    91   46  113 1    
    92   46  114 1    
    93   47   48 2    
    94   47   49 am   BACKBONE|DICT|INTERRES
    95   49   50 1    
    96   49  115 1    
    97   50   51 1    
    98   50   52 1    
    99   50  116 1    
   100   51  117 1    
   101   51  118 1    
   102   51  119 1    
   103   52   53 2    
   104   52   54 am   BACKBONE|DICT|INTERRES
   105   54   55 1    
   106   54  120 1    
   107   55   56 1    
   108   55   57 1    
   109   55  121 1    
   110   56  122 1    
   111   56  123 1    
   112   56  124 1    
   113   57   58 2    
   114   57   59 am   BACKBONE|DICT|INTERRES
   115   59   60 1    
   116   59  125 1    
   117   60   61 1    
   118   60   62 1    
   119   60  126 1    
   120   61  127 1    
   121   61  128 1    
   122   61  129 1    
   123   62   63 2    
   124   62   64 am   BACKBONE|DICT|INTERRES
   125   64   65 1    
   126   64  130 1    
   127   65   66 1    
   128   65   69 1    
   129   65  131 1    
   130   66   67 am   BACKBONE|DICT|INTERRES
   131   66   68 2    
   132   67  132 1    
   133   67  133 1    
   134   69   70 1    
   135   69  134 1    
   136   69  135 1    
   137   70   71 1    
   138   71  136 1    
   139   71  137 1    
@<TRIPOS>SUBSTRUCTURE
     1 UNK         1 GROUP             0       ****    0 ROOT    
