@<TRIPOS>MOLECULE
3R136
137   139    1
SMALL
USER_CHARGES


@<TRIPOS>ATOM
      1 CA         24.9966   29.2927    2.6837 C.3       0 UNK        -0.1979 
      2 C          25.5495   27.9438    3.1199 C.2       0 UNK         0.4864 
      3 O          24.9765   27.3073    4.0065 O.2       0 UNK        -0.5359 
      4 N          26.6554   27.5049    2.5054 N.am      1 UNK        -0.4318 
      5 CA         27.2677   26.1924    2.7357 C.3       1 UNK         0.0824 
      6 C6         28.7814   26.1984    2.3965 C.3       12 UNK        -0.0944 
      7 S7         29.7110   25.0536    3.4740 S.3       12 UNK        -0.2672 
      8 C8         30.6891   24.0642    2.2988 C.3       12 UNK         0.0333 
      9 C9         31.7378   24.9076    1.5888 C.ar      12 UNK        -0.0807 
     10 C10        32.8804   25.3376    2.2689 C.ar      12 UNK        -0.0894 
     11 C11        33.8229   26.1474    1.6294 C.ar      12 UNK        -0.0804 
     12 C12        33.6241   26.5109    0.2934 C.ar      12 UNK        -0.0824 
     13 C13        32.4932   26.0771   -0.4066 C.ar      12 UNK        -0.0762 
     14 C14        31.5627   25.2625    0.2499 C.ar      12 UNK        -0.0782 
     15 C15        32.3177   26.4914   -1.8693 C.3       12 UNK         0.0230 
     16 S16        30.5850   26.6103   -2.4399 S.3       12 UNK        -0.2608 
     17 C17        29.9275   27.8834   -1.3126 C.3       12 UNK        -0.0989 
     18 CA         28.5188   28.3755   -1.7237 C.3       5 UNK         0.0716 
     19 N          27.5463   27.2826   -1.8023 N.am      5 UNK        -0.4135 
     20 C          26.3712   27.3455   -2.4417 C.2       4 UNK         0.5031 
     21 O          26.0319   28.2966   -3.1490 O.2       4 UNK        -0.5229 
     22 CA         25.3970   26.1700   -2.2268 C.3       4 UNK         0.0329 
     23 CB         24.4562   25.9328   -3.4283 C.3       4 UNK        -0.2001 
     24 N          26.0553   24.9312   -1.7895 N.am      4 UNK        -0.4303 
     25 C          26.8504   24.1198   -2.5060 C.2       3 UNK         0.5044 
     26 O          27.1108   24.2989   -3.6960 O.2       3 UNK        -0.5152 
     27 CA         27.4895   22.9151   -1.7801 C.3       3 UNK         0.0319 
     28 CB         29.0009   22.8392   -2.0581 C.3       3 UNK        -0.2001 
     29 N          27.2736   22.9249   -0.3285 N.am      3 UNK        -0.4354 
     30 C          26.1944   22.4253    0.2898 C.2       2 UNK         0.4964 
     31 O          25.2761   21.8516   -0.2959 O.2       2 UNK        -0.5047 
     32 CA         26.1051   22.6190    1.8165 C.3       2 UNK         0.0288 
     33 CB         26.6664   21.3857    2.5428 C.3       2 UNK        -0.2113 
     34 N          26.7659   23.8234    2.3398 N.am      2 UNK        -0.4145 
     35 C          26.5065   25.0868    1.9721 C.2       1 UNK         0.5006 
     36 O          25.7343   25.3816    1.0560 O.2       1 UNK        -0.5103 
     37 C          28.0221   29.4316   -0.7190 C.2       5 UNK         0.5055 
     38 O          27.3443   29.0779    0.2501 O.2       5 UNK        -0.5220 
     39 N          28.3968   30.6960   -0.9472 N.am      6 UNK        -0.4450 
     40 CA         28.0979   31.8272   -0.0650 C.3       6 UNK         0.0367 
     41 CB         28.5081   33.1288   -0.7754 C.3       6 UNK        -0.1929 
     42 C          28.7945   31.7182    1.3055 C.2       6 UNK         0.5070 
     43 O          29.7871   30.9990    1.4394 O.2       6 UNK        -0.5237 
     44 N          28.2726   32.4748    2.2806 N.am      7 UNK        -0.4739 
     45 CA         28.7001   32.5316    3.6827 C.3       7 UNK         0.0276 
     46 CB         30.1506   33.0543    3.8182 C.3       7 UNK        -0.1927 
     47 C          28.4225   31.2005    4.4065 C.2       7 UNK         0.5013 
     48 O          27.2538   30.8371    4.5442 O.2       7 UNK        -0.5193 
     49 N          29.4698   30.5179    4.8773 N.am      8 UNK        -0.4253 
     50 CA         29.4115   29.2686    5.6301 C.3       8 UNK         0.0242 
     51 CB         29.0820   29.5667    7.1077 C.3       8 UNK        -0.2000 
     52 C          30.7548   28.5421    5.4805 C.2       8 UNK         0.4948 
     53 O          31.6672   29.0703    4.8411 O.2       8 UNK        -0.5275 
     54 N          30.8580   27.3555    6.0950 N.am      9 UNK        -0.4246 
     55 CA         32.0117   26.4505    6.0186 C.3       9 UNK         0.0261 
     56 CB         31.6507   25.1182    6.6976 C.3       9 UNK        -0.1959 
     57 C          33.3314   26.9948    6.5966 C.2       9 UNK         0.5033 
     58 O          34.3897   26.4407    6.2916 O.2       9 UNK        -0.5390 
     59 N          33.2658   28.0526    7.4161 N.am      10 UNK        -0.4215 
     60 CA         34.4076   28.7403    8.0245 C.3       10 UNK         0.0240 
     61 CB         33.9085   29.5480    9.2378 C.3       10 UNK        -0.1982 
     62 C          35.1777   29.6093    7.0067 C.2       10 UNK         0.4970 
     63 O          35.2785   30.8251    7.1824 O.2       10 UNK        -0.4916 
     64 N          35.6990   28.9674    5.9557 N.am      11 UNK        -0.4279 
     65 CA         36.4769   29.5902    4.8731 C.3       11 UNK         0.1003 
     66 C          37.9141   30.0323    5.2775 C.2       11 UNK         0.5709 
     67 N          38.4453   29.6170    6.4218 N.am      11 UNK        -0.7358 
     68 O          38.5576   30.7746    4.5392 O.2       11 UNK        -0.4999 
     69 C69        36.5120   28.6954    3.6059 C.3       12 UNK        -0.0954 
     70 S70        34.8513   28.3511    2.9344 S.3       12 UNK        -0.2268 
     71 C71        35.0555   26.6323    2.3777 C.3       12 UNK         0.0203 
     72 H72        25.7583   29.8993    2.1945 H         1 UNK         0.0888 
     73 H73        24.1666   29.1548    1.9917 H         1 UNK         0.0888 
     74 H74        24.6371   29.8504    3.5481 H         1 UNK         0.0888 
     75 H75        27.0258   28.0495    1.7273 H         1 UNK         0.3017 
     76 H76        27.1566   25.9787    3.8015 H         1 UNK         0.0873 
     77 H77        29.2054   27.1905    2.5643 H         1 UNK         0.0745 
     78 H78        28.9592   25.9762    1.3436 H         1 UNK         0.0745 
     79 H79        30.0212   23.5807    1.5846 H         1 UNK         0.0705 
     80 H80        31.1849   23.2604    2.8450 H         1 UNK         0.0705 
     81 H81        33.0306   25.0473    3.2987 H         1 UNK         0.1334 
     82 H82        34.3540   27.1391   -0.1993 H         1 UNK         0.1417 
     83 H83        30.6873   24.9140   -0.2743 H         1 UNK         0.1562 
     84 H84        32.8384   25.7672   -2.4969 H         1 UNK         0.0748 
     85 H85        32.8000   27.4545   -2.0449 H         1 UNK         0.0748 
     86 H86        30.6310   28.7186   -1.2972 H         1 UNK         0.0940 
     87 H87        29.9147   27.4848   -0.2971 H         1 UNK         0.0940 
     88 H88        28.5892   28.8406   -2.7096 H         1 UNK         0.0703 
     89 H89        27.7317   26.4763   -1.2285 H         1 UNK         0.3081 
     90 H90        24.7689   26.4705   -1.3868 H         1 UNK         0.0719 
     91 H91        23.8359   26.8100   -3.6160 H         1 UNK         0.0809 
     92 H92        25.0091   25.7291   -4.3455 H         1 UNK         0.0809 
     93 H93        23.7830   25.0951   -3.2467 H         1 UNK         0.0809 
     94 H94        25.9205   24.7202   -0.8049 H         1 UNK         0.2990 
     95 H95        27.0323   22.0156   -2.1981 H         1 UNK         0.0690 
     96 H96        29.4690   22.0170   -1.5164 H         1 UNK         0.0788 
     97 H97        29.5074   23.7619   -1.7813 H         1 UNK         0.0788 
     98 H98        29.1940   22.6752   -3.1191 H         1 UNK         0.0788 
     99 H99        27.9790   23.3745    0.2347 H         1 UNK         0.2993 
    100 H100       25.0442   22.7055    2.0611 H         1 UNK         0.0949 
    101 H101       27.7378   21.2703    2.3732 H         1 UNK         0.0767 
    102 H102       26.5008   21.4480    3.6186 H         1 UNK         0.0767 
    103 H103       26.1809   20.4721    2.1960 H         1 UNK         0.0767 
    104 H104       27.4368   23.6768    3.0817 H         1 UNK         0.3013 
    105 H105       28.9846   30.8931   -1.7440 H         1 UNK         0.3121 
    106 H106       27.0186   31.8423    0.1022 H         1 UNK         0.0774 
    107 H107       28.2613   34.0031   -0.1717 H         1 UNK         0.0815 
    108 H108       29.5813   33.1610   -0.9682 H         1 UNK         0.0815 
    109 H109       27.9910   33.2423   -1.7284 H         1 UNK         0.0815 
    110 H110       27.4476   33.0180    2.0655 H         1 UNK         0.2987 
    111 H111       28.0531   33.2657    4.1659 H         1 UNK         0.0949 
    112 H112       30.4250   33.1786    4.8667 H         1 UNK         0.0806 
    113 H113       30.8835   32.3871    3.3640 H         1 UNK         0.0806 
    114 H114       30.2585   34.0299    3.3443 H         1 UNK         0.0806 
    115 H115       30.4094   30.8126    4.6394 H         1 UNK         0.3010 
    116 H116       28.6375   28.6288    5.1995 H         1 UNK         0.0829 
    117 H117       28.1335   30.0955    7.2037 H         1 UNK         0.0813 
    118 H118       28.9917   28.6513    7.6930 H         1 UNK         0.0813 
    119 H119       29.8526   30.1814    7.5748 H         1 UNK         0.0813 
    120 H120       30.0575   27.0068    6.6023 H         1 UNK         0.3038 
    121 H121       32.1903   26.2626    4.9605 H         1 UNK         0.0769 
    122 H122       32.4650   24.3984    6.6028 H         1 UNK         0.0811 
    123 H123       30.7691   24.6628    6.2475 H         1 UNK         0.0811 
    124 H124       31.4543   25.2492    7.7625 H         1 UNK         0.0811 
    125 H125       32.3568   28.4589    7.5788 H         1 UNK         0.3204 
    126 H126       35.1062   27.9868    8.3945 H         1 UNK         0.0748 
    127 H127       34.7368   30.0455    9.7443 H         1 UNK         0.0771 
    128 H128       33.1942   30.3189    8.9450 H         1 UNK         0.0771 
    129 H129       33.4246   28.9034    9.9720 H         1 UNK         0.0771 
    130 H130       35.5178   27.9715    5.8728 H         1 UNK         0.2980 
    131 H131       35.9575   30.5112    4.6011 H         1 UNK         0.0545 
    132 H132       39.3749   29.9154    6.6717 H         1 UNK         0.3459 
    133 H133       37.9288   29.0057    7.0330 H         1 UNK         0.3459 
    134 H134       37.0880   29.1727    2.8109 H         1 UNK         0.0616 
    135 H135       37.0178   27.7539    3.8280 H         1 UNK         0.0616 
    136 H136       35.9298   26.5620    1.7287 H         1 UNK         0.0634 
    137 H137       35.2549   25.9969    3.2423 H         1 UNK         0.0634 
@<TRIPOS>BOND
     1    1    2 1    
     2    1   72 1    
     3    1   73 1    
     4    1   74 1    
     5    2    3 2    
     6    2    4 am   BACKBONE|DICT|INTERRES
     7    4    5 1    
     8    4   75 1    
     9    5    6 1    
    10    5   35 1    
    11    5   76 1    
    12    6    7 1    
    13    6   77 1    
    14    6   78 1    
    15    7    8 1    
    16    8    9 1    
    17    8   79 1    
    18    8   80 1    
    19    9   10 ar   
    20    9   14 ar   
    21   10   11 ar   
    22   10   81 1    
    23   11   12 ar   
    24   11   71 1    
    25   12   13 ar   
    26   12   82 1    
    27   13   14 ar   
    28   13   15 1    
    29   14   83 1    
    30   15   16 1    
    31   15   84 1    
    32   15   85 1    
    33   16   17 1    
    34   17   18 1    
    35   17   86 1    
    36   17   87 1    
    37   18   19 1    
    38   18   37 1    
    39   18   88 1    
    40   19   20 am   BACKBONE|DICT|INTERRES
    41   19   89 1    
    42   20   21 2    
    43   20   22 1    
    44   22   23 1    
    45   22   24 1    
    46   22   90 1    
    47   23   91 1    
    48   23   92 1    
    49   23   93 1    
    50   24   25 am   BACKBONE|DICT|INTERRES
    51   24   94 1    
    52   25   26 2    
    53   25   27 1    
    54   27   28 1    
    55   27   29 1    
    56   27   95 1    
    57   28   96 1    
    58   28   97 1    
    59   28   98 1    
    60   29   30 am   BACKBONE|DICT|INTERRES
    61   29   99 1    
    62   30   31 2    
    63   30   32 1    
    64   32   33 1    
    65   32   34 1    
    66   32  100 1    
    67   33  101 1    
    68   33  102 1    
    69   33  103 1    
    70   34   35 am   BACKBONE|DICT|INTERRES
    71   34  104 1    
    72   35   36 2    
    73   37   38 2    
    74   37   39 am   BACKBONE|DICT|INTERRES
    75   39   40 1    
    76   39  105 1    
    77   40   41 1    
    78   40   42 1    
    79   40  106 1    
    80   41  107 1    
    81   41  108 1    
    82   41  109 1    
    83   42   43 2    
    84   42   44 am   BACKBONE|DICT|INTERRES
    85   44   45 1    
    86   44  110 1    
    87   45   46 1    
    88   45   47 1    
    89   45  111 1    
    90   46  112 1    
    91   46  113 1    
    92   46  114 1    
    93   47   48 2    
    94   47   49 am   BACKBONE|DICT|INTERRES
    95   49   50 1    
    96   49  115 1    
    97   50   51 1    
    98   50   52 1    
    99   50  116 1    
   100   51  117 1    
   101   51  118 1    
   102   51  119 1    
   103   52   53 2    
   104   52   54 am   BACKBONE|DICT|INTERRES
   105   54   55 1    
   106   54  120 1    
   107   55   56 1    
   108   55   57 1    
   109   55  121 1    
   110   56  122 1    
   111   56  123 1    
   112   56  124 1    
   113   57   58 2    
   114   57   59 am   BACKBONE|DICT|INTERRES
   115   59   60 1    
   116   59  125 1    
   117   60   61 1    
   118   60   62 1    
   119   60  126 1    
   120   61  127 1    
   121   61  128 1    
   122   61  129 1    
   123   62   63 2    
   124   62   64 am   BACKBONE|DICT|INTERRES
   125   64   65 1    
   126   64  130 1    
   127   65   66 1    
   128   65   69 1    
   129   65  131 1    
   130   66   67 am   BACKBONE|DICT|INTERRES
   131   66   68 2    
   132   67  132 1    
   133   67  133 1    
   134   69   70 1    
   135   69  134 1    
   136   69  135 1    
   137   70   71 1    
   138   71  136 1    
   139   71  137 1    
@<TRIPOS>SUBSTRUCTURE
     1 UNK         1 GROUP             0       ****    0 ROOT    
