@<TRIPOS>MOLECULE
3R136
137   139    1
SMALL
USER_CHARGES


@<TRIPOS>ATOM
      1 CA         27.7303   21.7160    5.2525 C.3       0 UNK        -0.1979 
      2 C          28.0597   22.0854    3.8135 C.2       0 UNK         0.4864 
      3 O          28.1611   23.2719    3.5023 O.2       0 UNK        -0.5359 
      4 N          28.2235   21.0754    2.9459 N.am      1 UNK        -0.4318 
      5 CA         28.5309   21.1899    1.5125 C.3       1 UNK         0.0824 
      6 C6         29.9435   21.7736    1.2247 C.3       12 UNK        -0.0944 
      7 S7         31.3307   20.9692    2.0980 S.3       12 UNK        -0.2672 
      8 C8         32.7591   21.5105    1.0902 C.3       12 UNK         0.0333 
      9 C9         32.8049   23.0257    0.9260 C.ar      12 UNK        -0.0807 
     10 C10        33.4521   23.8297    1.8674 C.ar      12 UNK        -0.0894 
     11 C11        33.4207   25.2236    1.7496 C.ar      12 UNK        -0.0804 
     12 C12        32.7147   25.8136    0.6944 C.ar      12 UNK        -0.0824 
     13 C13        32.0678   25.0163   -0.2592 C.ar      12 UNK        -0.0762 
     14 C14        32.1545   23.6272   -0.1540 C.ar      12 UNK        -0.0782 
     15 C15        31.1653   25.5923   -1.3457 C.3       12 UNK         0.0230 
     16 S16        31.5941   27.2624   -1.9339 S.3       12 UNK        -0.2608 
     17 C17        29.9081   27.9332   -2.2096 C.3       12 UNK        -0.0989 
     18 CA         29.3084   28.8696   -1.1118 C.3       5 UNK         0.0716 
     19 N          27.8532   28.7300   -0.9985 N.am      5 UNK        -0.4135 
     20 C          27.0469   29.6499   -0.4490 C.2       4 UNK         0.5031 
     21 O          27.4374   30.7332   -0.0123 O.2       4 UNK        -0.5229 
     22 CA         25.5572   29.2829   -0.3374 C.3       4 UNK         0.0329 
     23 CB         24.8520   29.4395   -1.6943 C.3       4 UNK        -0.2001 
     24 N          25.3382   27.9297    0.1820 N.am      4 UNK        -0.4303 
     25 C          25.6807   27.5324    1.4159 C.2       3 UNK         0.5044 
     26 O          26.2102   28.2662    2.2476 O.2       3 UNK        -0.5152 
     27 CA         25.4175   26.0634    1.7851 C.3       3 UNK         0.0319 
     28 CB         23.9865   25.8930    2.3187 C.3       3 UNK        -0.2001 
     29 N          25.6566   25.0926    0.7121 N.am      3 UNK        -0.4354 
     30 C          26.7839   24.9729   -0.0018 C.2       2 UNK         0.4964 
     31 O          27.7301   25.7636    0.0481 O.2       2 UNK        -0.5047 
     32 CA         26.8882   23.7292   -0.8953 C.3       2 UNK         0.0288 
     33 CB         27.4487   24.0743   -2.2866 C.3       2 UNK        -0.2113 
     34 N          27.7714   22.7692   -0.2378 N.am      2 UNK        -0.4145 
     35 C          27.4047   21.9422    0.7539 C.2       1 UNK         0.5006 
     36 O          26.2270   21.7599    1.0765 O.2       1 UNK        -0.5103 
     37 C          29.9638   28.7777    0.2822 C.2       5 UNK         0.5055 
     38 O          30.8435   29.5848    0.5822 O.2       5 UNK        -0.5220 
     39 N          29.5052   27.8353    1.1198 N.am      6 UNK        -0.4450 
     40 CA         29.9920   27.6566    2.4892 C.3       6 UNK         0.0367 
     41 CB         29.3733   26.3956    3.1055 C.3       6 UNK        -0.1929 
     42 C          29.7587   28.8888    3.3794 C.2       6 UNK         0.5070 
     43 O          30.6657   29.2796    4.1137 O.2       6 UNK        -0.5237 
     44 N          28.5773   29.5121    3.2610 N.am      7 UNK        -0.4739 
     45 CA         28.2306   30.7700    3.9260 C.3       7 UNK         0.0276 
     46 CB         26.7261   31.0429    3.7742 C.3       7 UNK        -0.1927 
     47 C          29.0482   31.9659    3.4126 C.2       7 UNK         0.5013 
     48 O          29.4597   32.7954    4.2234 O.2       7 UNK        -0.5193 
     49 N          29.2875   32.0282    2.0933 N.am      8 UNK        -0.4253 
     50 CA         30.1212   33.0523    1.4544 C.3       8 UNK         0.0242 
     51 CB         29.9568   32.9885   -0.0724 C.3       8 UNK        -0.2000 
     52 C          31.6031   32.9417    1.8526 C.2       8 UNK         0.4948 
     53 O          32.2327   33.9640    2.1273 O.2       8 UNK        -0.5275 
     54 N          32.1228   31.7071    1.9041 N.am      9 UNK        -0.4246 
     55 CA         33.4631   31.3821    2.3991 C.3       9 UNK         0.0261 
     56 CB         33.8042   29.9335    2.0116 C.3       9 UNK        -0.1959 
     57 C          33.6055   31.5684    3.9207 C.2       9 UNK         0.5033 
     58 O          34.7129   31.8327    4.3908 O.2       9 UNK        -0.5390 
     59 N          32.4912   31.4061    4.6497 N.am      10 UNK        -0.4215 
     60 CA         32.3516   31.4108    6.1092 C.3       10 UNK         0.0240 
     61 CB         32.6940   32.7953    6.6998 C.3       10 UNK        -0.1982 
     62 C          33.1192   30.2519    6.7743 C.2       10 UNK         0.4970 
     63 O          33.6632   30.4231    7.8676 O.2       10 UNK        -0.4916 
     64 N          33.1602   29.0983    6.0955 N.am      11 UNK        -0.4279 
     65 CA         33.8231   27.8767    6.5664 C.3       11 UNK         0.1003 
     66 C          32.9541   27.0576    7.5629 C.2       11 UNK         0.5709 
     67 N          33.5471   26.0863    8.2447 N.am      11 UNK        -0.7358 
     68 O          31.7558   27.2838    7.7263 O.2       11 UNK        -0.4999 
     69 C69        34.3719   27.0341    5.3839 C.3       12 UNK        -0.0954 
     70 S70        33.1061   26.4088    4.2296 S.3       12 UNK        -0.2268 
     71 C71        34.1443   26.0840    2.7730 C.3       12 UNK         0.0203 
     72 H72        27.6771   20.6369    5.3959 H         1 UNK         0.0888 
     73 H73        28.4933   22.1099    5.9234 H         1 UNK         0.0888 
     74 H74        26.7701   22.1444    5.5385 H         1 UNK         0.0888 
     75 H75        28.1006   20.1288    3.2762 H         1 UNK         0.3017 
     76 H76        28.5137   20.1706    1.1238 H         1 UNK         0.0873 
     77 H77        30.1521   21.6809    0.1588 H         1 UNK         0.0745 
     78 H78        29.9723   22.8368    1.4736 H         1 UNK         0.0745 
     79 H79        33.6784   21.1589    1.5608 H         1 UNK         0.0705 
     80 H80        32.7134   21.0261    0.1135 H         1 UNK         0.0705 
     81 H81        33.9636   23.3723    2.7034 H         1 UNK         0.1334 
     82 H82        32.6519   26.8914    0.6342 H         1 UNK         0.1417 
     83 H83        31.6567   23.0080   -0.8869 H         1 UNK         0.1562 
     84 H84        30.1598   25.6035   -0.9270 H         1 UNK         0.0748 
     85 H85        31.1341   24.9285   -2.2112 H         1 UNK         0.0748 
     86 H86        29.2373   27.0927   -2.3952 H         1 UNK         0.0940 
     87 H87        29.9269   28.4731   -3.1576 H         1 UNK         0.0940 
     88 H88        29.4998   29.8905   -1.4503 H         1 UNK         0.0703 
     89 H89        27.4588   27.8378   -1.2596 H         1 UNK         0.3081 
     90 H90        25.0999   29.9845    0.3639 H         1 UNK         0.0719 
     91 H91        24.9943   30.4451   -2.0930 H         1 UNK         0.0809 
     92 H92        25.2338   28.7375   -2.4365 H         1 UNK         0.0809 
     93 H93        23.7775   29.2796   -1.6028 H         1 UNK         0.0809 
     94 H94        24.9072   27.2581   -0.4364 H         1 UNK         0.2990 
     95 H95        26.1055   25.8079    2.5929 H         1 UNK         0.0690 
     96 H96        23.7881   26.5903    3.1342 H         1 UNK         0.0788 
     97 H97        23.8255   24.8882    2.7100 H         1 UNK         0.0788 
     98 H98        23.2411   26.0765    1.5439 H         1 UNK         0.0788 
     99 H99        24.9552   24.3729    0.6082 H         1 UNK         0.2993 
    100 H100       25.8973   23.2887   -1.0275 H         1 UNK         0.0949 
    101 H101       26.8184   24.8098   -2.7882 H         1 UNK         0.0767 
    102 H102       28.4549   24.4895   -2.2344 H         1 UNK         0.0767 
    103 H103       27.4865   23.1918   -2.9255 H         1 UNK         0.0767 
    104 H104       28.7561   22.8824   -0.4229 H         1 UNK         0.3013 
    105 H105       28.7965   27.1837    0.7920 H         1 UNK         0.3121 
    106 H106       31.0699   27.5053    2.4270 H         1 UNK         0.0774 
    107 H107       29.5955   25.5120    2.5062 H         1 UNK         0.0815 
    108 H108       29.7713   26.2156    4.1049 H         1 UNK         0.0815 
    109 H109       28.2907   26.4777    3.1942 H         1 UNK         0.0815 
    110 H110       27.8526   29.0893    2.6849 H         1 UNK         0.2987 
    111 H111       28.4499   30.6548    4.9898 H         1 UNK         0.0949 
    112 H112       26.4345   31.1218    2.7259 H         1 UNK         0.0806 
    113 H113       26.1327   30.2481    4.2264 H         1 UNK         0.0806 
    114 H114       26.4451   31.9760    4.2645 H         1 UNK         0.0806 
    115 H115       28.8740   31.3280    1.4872 H         1 UNK         0.3010 
    116 H116       29.7620   34.0274    1.7905 H         1 UNK         0.0829 
    117 H117       30.2915   32.0334   -0.4768 H         1 UNK         0.0813 
    118 H118       28.9163   33.1293   -0.3654 H         1 UNK         0.0813 
    119 H119       30.5400   33.7708   -0.5598 H         1 UNK         0.0813 
    120 H120       31.5574   30.9258    1.5717 H         1 UNK         0.3038 
    121 H121       34.1780   32.0488    1.9125 H         1 UNK         0.0769 
    122 H122       33.1048   29.2242    2.4564 H         1 UNK         0.0811 
    123 H123       34.8053   29.6624    2.3495 H         1 UNK         0.0811 
    124 H124       33.7758   29.7940    0.9307 H         1 UNK         0.0811 
    125 H125       31.6625   31.0951    4.1542 H         1 UNK         0.3204 
    126 H126       31.2952   31.2226    6.3066 H         1 UNK         0.0748 
    127 H127       32.4509   32.8378    7.7621 H         1 UNK         0.0771 
    128 H128       33.7542   33.0294    6.5995 H         1 UNK         0.0771 
    129 H129       32.1269   33.5849    6.2063 H         1 UNK         0.0771 
    130 H130       32.6061   29.0091    5.2528 H         1 UNK         0.2980 
    131 H131       34.6971   28.1920    7.1399 H         1 UNK         0.0545 
    132 H132       34.5275   25.8858    8.1237 H         1 UNK         0.3459 
    133 H133       33.0011   25.5417    8.8939 H         1 UNK         0.3459 
    134 H134       34.9456   26.1830    5.7541 H         1 UNK         0.0616 
    135 H135       35.0808   27.6413    4.8183 H         1 UNK         0.0616 
    136 H136       35.0609   25.5821    3.0870 H         1 UNK         0.0634 
    137 H137       34.4496   27.0310    2.3267 H         1 UNK         0.0634 
@<TRIPOS>BOND
     1    1    2 1    
     2    1   72 1    
     3    1   73 1    
     4    1   74 1    
     5    2    3 2    
     6    2    4 am   BACKBONE|DICT|INTERRES
     7    4    5 1    
     8    4   75 1    
     9    5    6 1    
    10    5   35 1    
    11    5   76 1    
    12    6    7 1    
    13    6   77 1    
    14    6   78 1    
    15    7    8 1    
    16    8    9 1    
    17    8   79 1    
    18    8   80 1    
    19    9   10 ar   
    20    9   14 ar   
    21   10   11 ar   
    22   10   81 1    
    23   11   12 ar   
    24   11   71 1    
    25   12   13 ar   
    26   12   82 1    
    27   13   14 ar   
    28   13   15 1    
    29   14   83 1    
    30   15   16 1    
    31   15   84 1    
    32   15   85 1    
    33   16   17 1    
    34   17   18 1    
    35   17   86 1    
    36   17   87 1    
    37   18   19 1    
    38   18   37 1    
    39   18   88 1    
    40   19   20 am   BACKBONE|DICT|INTERRES
    41   19   89 1    
    42   20   21 2    
    43   20   22 1    
    44   22   23 1    
    45   22   24 1    
    46   22   90 1    
    47   23   91 1    
    48   23   92 1    
    49   23   93 1    
    50   24   25 am   BACKBONE|DICT|INTERRES
    51   24   94 1    
    52   25   26 2    
    53   25   27 1    
    54   27   28 1    
    55   27   29 1    
    56   27   95 1    
    57   28   96 1    
    58   28   97 1    
    59   28   98 1    
    60   29   30 am   BACKBONE|DICT|INTERRES
    61   29   99 1    
    62   30   31 2    
    63   30   32 1    
    64   32   33 1    
    65   32   34 1    
    66   32  100 1    
    67   33  101 1    
    68   33  102 1    
    69   33  103 1    
    70   34   35 am   BACKBONE|DICT|INTERRES
    71   34  104 1    
    72   35   36 2    
    73   37   38 2    
    74   37   39 am   BACKBONE|DICT|INTERRES
    75   39   40 1    
    76   39  105 1    
    77   40   41 1    
    78   40   42 1    
    79   40  106 1    
    80   41  107 1    
    81   41  108 1    
    82   41  109 1    
    83   42   43 2    
    84   42   44 am   BACKBONE|DICT|INTERRES
    85   44   45 1    
    86   44  110 1    
    87   45   46 1    
    88   45   47 1    
    89   45  111 1    
    90   46  112 1    
    91   46  113 1    
    92   46  114 1    
    93   47   48 2    
    94   47   49 am   BACKBONE|DICT|INTERRES
    95   49   50 1    
    96   49  115 1    
    97   50   51 1    
    98   50   52 1    
    99   50  116 1    
   100   51  117 1    
   101   51  118 1    
   102   51  119 1    
   103   52   53 2    
   104   52   54 am   BACKBONE|DICT|INTERRES
   105   54   55 1    
   106   54  120 1    
   107   55   56 1    
   108   55   57 1    
   109   55  121 1    
   110   56  122 1    
   111   56  123 1    
   112   56  124 1    
   113   57   58 2    
   114   57   59 am   BACKBONE|DICT|INTERRES
   115   59   60 1    
   116   59  125 1    
   117   60   61 1    
   118   60   62 1    
   119   60  126 1    
   120   61  127 1    
   121   61  128 1    
   122   61  129 1    
   123   62   63 2    
   124   62   64 am   BACKBONE|DICT|INTERRES
   125   64   65 1    
   126   64  130 1    
   127   65   66 1    
   128   65   69 1    
   129   65  131 1    
   130   66   67 am   BACKBONE|DICT|INTERRES
   131   66   68 2    
   132   67  132 1    
   133   67  133 1    
   134   69   70 1    
   135   69  134 1    
   136   69  135 1    
   137   70   71 1    
   138   71  136 1    
   139   71  137 1    
@<TRIPOS>SUBSTRUCTURE
     1 UNK         1 GROUP             0       ****    0 ROOT    
