@<TRIPOS>MOLECULE
3R136
137   139    1
SMALL
USER_CHARGES


@<TRIPOS>ATOM
      1 CA         28.8100   17.9665   -3.5078 C.3       0 UNK        -0.1979 
      2 C          29.1619   19.3368   -2.9471 C.2       0 UNK         0.4864 
      3 O          30.0119   20.0280   -3.5111 O.2       0 UNK        -0.5359 
      4 N          28.5220   19.7301   -1.8381 N.am      1 UNK        -0.4318 
      5 CA         28.6821   21.0408   -1.2025 C.3       1 UNK         0.0824 
      6 C6         28.1416   21.0209    0.2504 C.3       12 UNK        -0.0944 
      7 S7         28.7607   22.4163    1.2504 S.3       12 UNK        -0.2672 
      8 C8         29.8331   21.5630    2.4426 C.3       12 UNK         0.0333 
      9 C9         30.5376   22.5506    3.3611 C.ar      12 UNK        -0.0807 
     10 C10        31.6815   23.2192    2.9152 C.ar      12 UNK        -0.0894 
     11 C11        32.3648   24.0942    3.7628 C.ar      12 UNK        -0.0804 
     12 C12        31.9035   24.2926    5.0669 C.ar      12 UNK        -0.0824 
     13 C13        30.7523   23.6425    5.5229 C.ar      12 UNK        -0.0762 
     14 C14        30.0699   22.7752    4.6615 C.ar      12 UNK        -0.0782 
     15 C15        30.2791   23.8327    6.9602 C.3       12 UNK         0.0230 
     16 S16        29.0947   25.2080    7.1469 S.3       12 UNK        -0.2608 
     17 C17        30.1835   26.6809    7.0571 C.3       12 UNK        -0.0989 
     18 CA         29.8914   27.6222    5.8532 C.3       5 UNK         0.0716 
     19 N          29.6697   26.8559    4.6261 N.am      5 UNK        -0.4135 
     20 C          29.7655   27.2783    3.3619 C.2       4 UNK         0.5031 
     21 O          30.1974   28.3920    3.0509 O.2       4 UNK        -0.5229 
     22 CA         29.2774   26.2727    2.3020 C.3       4 UNK         0.0329 
     23 CB         27.9745   25.5621    2.7410 C.3       4 UNK        -0.2001 
     24 N          29.1006   26.8412    0.9633 N.am      4 UNK        -0.4303 
     25 C          28.2326   27.7807    0.5659 C.2       3 UNK         0.5044 
     26 O          27.4934   28.4109    1.3222 O.2       3 UNK        -0.5152 
     27 CA         28.1093   28.0062   -0.9557 C.3       3 UNK         0.0319 
     28 CB         29.3040   28.7960   -1.5188 C.3       3 UNK        -0.2001 
     29 N          27.8579   26.7765   -1.7277 N.am      3 UNK        -0.4354 
     30 C          28.6666   25.7214   -1.9056 C.2       2 UNK         0.4964 
     31 O          29.8186   25.6440   -1.4686 O.2       2 UNK        -0.5047 
     32 CA         28.0920   24.5408   -2.6933 C.3       2 UNK         0.0288 
     33 CB         28.4826   24.6159   -4.1797 C.3       2 UNK        -0.2113 
     34 N          28.6223   23.3215   -2.0942 N.am      2 UNK        -0.4145 
     35 C          27.9998   22.1402   -2.0460 C.2       1 UNK         0.5006 
     36 O          26.9185   21.9099   -2.5961 O.2       1 UNK        -0.5103 
     37 C          28.7524   28.6421    6.1126 C.2       5 UNK         0.5055 
     38 O          28.2075   28.7109    7.2158 O.2       5 UNK        -0.5220 
     39 N          28.4215   29.4255    5.0838 N.am      6 UNK        -0.4450 
     40 CA         27.4713   30.5298    5.0762 C.3       6 UNK         0.0367 
     41 CB         26.1472   30.0544    4.4553 C.3       6 UNK        -0.1929 
     42 C          28.0937   31.6648    4.2551 C.2       6 UNK         0.5070 
     43 O          29.0704   31.4315    3.5388 O.2       6 UNK        -0.5237 
     44 N          27.5134   32.8681    4.3521 N.am      7 UNK        -0.4739 
     45 CA         28.0231   34.1391    3.8074 C.3       7 UNK         0.0276 
     46 CB         27.0161   35.2540    4.1367 C.3       7 UNK        -0.1927 
     47 C          28.3802   34.1701    2.3053 C.2       7 UNK         0.5013 
     48 O          29.0885   35.0834    1.8802 O.2       7 UNK        -0.5193 
     49 N          27.9111   33.1803    1.5350 N.am      8 UNK        -0.4253 
     50 CA         28.2821   32.9458    0.1392 C.3       8 UNK         0.0242 
     51 CB         27.3459   31.8787   -0.4509 C.3       8 UNK        -0.2000 
     52 C          29.7583   32.5414   -0.0610 C.2       8 UNK         0.4948 
     53 O          30.2791   32.7591   -1.1561 O.2       8 UNK        -0.5275 
     54 N          30.4061   31.9688    0.9656 N.am      9 UNK        -0.4246 
     55 CA         31.8217   31.5791    0.9264 C.3       9 UNK         0.0261 
     56 CB         31.9879   30.1728    0.3226 C.3       9 UNK        -0.1959 
     57 C          32.5103   31.6623    2.2940 C.2       9 UNK         0.5033 
     58 O          33.6708   32.0719    2.3473 O.2       9 UNK        -0.5390 
     59 N          31.8029   31.2692    3.3633 N.am      10 UNK        -0.4215 
     60 CA         32.2439   31.2287    4.7625 C.3       10 UNK         0.0240 
     61 CB         32.3997   32.6585    5.3216 C.3       10 UNK        -0.1982 
     62 C          33.4911   30.3487    4.9834 C.2       10 UNK         0.4970 
     63 O          34.3638   30.7046    5.7771 O.2       10 UNK        -0.4916 
     64 N          33.5511   29.2139    4.2742 N.am      11 UNK        -0.4279 
     65 CA         34.6690   28.2558    4.3042 C.3       11 UNK         0.1003 
     66 C          34.7871   27.3968    5.5996 C.2       11 UNK         0.5709 
     67 N          33.8664   27.4877    6.5519 N.am      11 UNK        -0.7358 
     68 O          35.7450   26.6424    5.7497 O.2       11 UNK        -0.4999 
     69 C69        34.7215   27.4002    3.0081 C.3       12 UNK        -0.0954 
     70 S70        33.1828   26.4802    2.6727 S.3       12 UNK        -0.2268 
     71 C71        33.6084   24.8216    3.2812 C.3       12 UNK         0.0203 
     72 H72        28.0566   17.4601   -2.9047 H         1 UNK         0.0888 
     73 H73        28.4226   18.0647   -4.5216 H         1 UNK         0.0888 
     74 H74        29.6976   17.3353   -3.5412 H         1 UNK         0.0888 
     75 H75        27.8100   19.1342   -1.4407 H         1 UNK         0.3017 
     76 H76        29.7543   21.2490   -1.1658 H         1 UNK         0.0873 
     77 H77        28.4313   20.0906    0.7419 H         1 UNK         0.0745 
     78 H78        27.0498   21.0328    0.2656 H         1 UNK         0.0745 
     79 H79        30.5742   20.9705    1.9036 H         1 UNK         0.0705 
     80 H80        29.2369   20.8588    3.0251 H         1 UNK         0.0705 
     81 H81        32.0401   23.0555    1.9080 H         1 UNK         0.1334 
     82 H82        32.4499   24.9537    5.7243 H         1 UNK         0.1417 
     83 H83        29.1862   22.2585    5.0110 H         1 UNK         0.1562 
     84 H84        31.1310   23.9895    7.6238 H         1 UNK         0.0748 
     85 H85        29.7990   22.9169    7.3084 H         1 UNK         0.0748 
     86 H86        31.2184   26.3483    7.0008 H         1 UNK         0.0940 
     87 H87        30.1272   27.2165    8.0068 H         1 UNK         0.0940 
     88 H88        30.7874   28.2262    5.6980 H         1 UNK         0.0703 
     89 H89        29.3181   25.9224    4.7864 H         1 UNK         0.3081 
     90 H90        30.0590   25.5191    2.2008 H         1 UNK         0.0719 
     91 H91        28.1554   24.8559    3.5517 H         1 UNK         0.0809 
     92 H92        27.2209   26.2737    3.0820 H         1 UNK         0.0809 
     93 H93        27.5355   24.9937    1.9217 H         1 UNK         0.0809 
     94 H94        29.6433   26.3983    0.2260 H         1 UNK         0.2990 
     95 H95        27.2223   28.6244   -1.1037 H         1 UNK         0.0690 
     96 H96        29.1718   29.0145   -2.5783 H         1 UNK         0.0788 
     97 H97        30.2454   28.2592   -1.4015 H         1 UNK         0.0788 
     98 H98        29.4069   29.7495   -1.0033 H         1 UNK         0.0788 
     99 H99        26.9287   26.7174   -2.1217 H         1 UNK         0.2993 
    100 H100       27.0036   24.5482   -2.5991 H         1 UNK         0.0949 
    101 H101       29.5656   24.6101   -4.3112 H         1 UNK         0.0767 
    102 H102       28.0734   23.7747   -4.7397 H         1 UNK         0.0767 
    103 H103       28.1009   25.5287   -4.6389 H         1 UNK         0.0767 
    104 H104       29.4798   23.4601   -1.5729 H         1 UNK         0.3013 
    105 H105       28.9604   29.3373    4.2234 H         1 UNK         0.3121 
    106 H106       27.3014   30.8893    6.0933 H         1 UNK         0.0774 
    107 H107       26.2834   29.7213    3.4254 H         1 UNK         0.0815 
    108 H108       25.7236   29.2235    5.0196 H         1 UNK         0.0815 
    109 H109       25.4037   30.8519    4.4470 H         1 UNK         0.0815 
    110 H110       26.6944   32.9460    4.9387 H         1 UNK         0.2987 
    111 H111       28.9516   34.3550    4.3404 H         1 UNK         0.0949 
    112 H112       26.8589   35.3451    5.2116 H         1 UNK         0.0806 
    113 H113       27.3716   36.2232    3.7833 H         1 UNK         0.0806 
    114 H114       26.0480   35.0721    3.6681 H         1 UNK         0.0806 
    115 H115       27.3582   32.4654    1.9849 H         1 UNK         0.3010 
    116 H116       28.1265   33.8777   -0.4084 H         1 UNK         0.0829 
    117 H117       27.4116   30.9396    0.0994 H         1 UNK         0.0813 
    118 H118       27.5963   31.6677   -1.4916 H         1 UNK         0.0813 
    119 H119       26.3067   32.2072   -0.4297 H         1 UNK         0.0813 
    120 H120       29.9082   31.8393    1.8427 H         1 UNK         0.3038 
    121 H121       32.3566   32.2835    0.2851 H         1 UNK         0.0769 
    122 H122       31.7510   30.1745   -0.7405 H         1 UNK         0.0811 
    123 H123       31.3459   29.4420    0.8157 H         1 UNK         0.0811 
    124 H124       33.0160   29.8198    0.4170 H         1 UNK         0.0811 
    125 H125       30.8384   30.9753    3.2257 H         1 UNK         0.3204 
    126 H126       31.4358   30.7496    5.3167 H         1 UNK         0.0748 
    127 H127       33.2198   33.1932    4.8412 H         1 UNK         0.0771 
    128 H128       31.4890   33.2398    5.1756 H         1 UNK         0.0771 
    129 H129       32.6039   32.6417    6.3929 H         1 UNK         0.0771 
    130 H130       32.7860   28.9778    3.6568 H         1 UNK         0.2980 
    131 H131       35.5809   28.8558    4.3003 H         1 UNK         0.0545 
    132 H132       33.1119   28.1457    6.4663 H         1 UNK         0.3459 
    133 H133       33.9769   26.9433    7.3922 H         1 UNK         0.3459 
    134 H134       35.5708   26.7147    3.0197 H         1 UNK         0.0616 
    135 H135       34.8943   28.0577    2.1548 H         1 UNK         0.0616 
    136 H136       34.1013   24.2624    2.4846 H         1 UNK         0.0634 
    137 H137       34.3264   24.8882    4.0989 H         1 UNK         0.0634 
@<TRIPOS>BOND
     1    1    2 1    
     2    1   72 1    
     3    1   73 1    
     4    1   74 1    
     5    2    3 2    
     6    2    4 am   BACKBONE|DICT|INTERRES
     7    4    5 1    
     8    4   75 1    
     9    5    6 1    
    10    5   35 1    
    11    5   76 1    
    12    6    7 1    
    13    6   77 1    
    14    6   78 1    
    15    7    8 1    
    16    8    9 1    
    17    8   79 1    
    18    8   80 1    
    19    9   10 ar   
    20    9   14 ar   
    21   10   11 ar   
    22   10   81 1    
    23   11   12 ar   
    24   11   71 1    
    25   12   13 ar   
    26   12   82 1    
    27   13   14 ar   
    28   13   15 1    
    29   14   83 1    
    30   15   16 1    
    31   15   84 1    
    32   15   85 1    
    33   16   17 1    
    34   17   18 1    
    35   17   86 1    
    36   17   87 1    
    37   18   19 1    
    38   18   37 1    
    39   18   88 1    
    40   19   20 am   BACKBONE|DICT|INTERRES
    41   19   89 1    
    42   20   21 2    
    43   20   22 1    
    44   22   23 1    
    45   22   24 1    
    46   22   90 1    
    47   23   91 1    
    48   23   92 1    
    49   23   93 1    
    50   24   25 am   BACKBONE|DICT|INTERRES
    51   24   94 1    
    52   25   26 2    
    53   25   27 1    
    54   27   28 1    
    55   27   29 1    
    56   27   95 1    
    57   28   96 1    
    58   28   97 1    
    59   28   98 1    
    60   29   30 am   BACKBONE|DICT|INTERRES
    61   29   99 1    
    62   30   31 2    
    63   30   32 1    
    64   32   33 1    
    65   32   34 1    
    66   32  100 1    
    67   33  101 1    
    68   33  102 1    
    69   33  103 1    
    70   34   35 am   BACKBONE|DICT|INTERRES
    71   34  104 1    
    72   35   36 2    
    73   37   38 2    
    74   37   39 am   BACKBONE|DICT|INTERRES
    75   39   40 1    
    76   39  105 1    
    77   40   41 1    
    78   40   42 1    
    79   40  106 1    
    80   41  107 1    
    81   41  108 1    
    82   41  109 1    
    83   42   43 2    
    84   42   44 am   BACKBONE|DICT|INTERRES
    85   44   45 1    
    86   44  110 1    
    87   45   46 1    
    88   45   47 1    
    89   45  111 1    
    90   46  112 1    
    91   46  113 1    
    92   46  114 1    
    93   47   48 2    
    94   47   49 am   BACKBONE|DICT|INTERRES
    95   49   50 1    
    96   49  115 1    
    97   50   51 1    
    98   50   52 1    
    99   50  116 1    
   100   51  117 1    
   101   51  118 1    
   102   51  119 1    
   103   52   53 2    
   104   52   54 am   BACKBONE|DICT|INTERRES
   105   54   55 1    
   106   54  120 1    
   107   55   56 1    
   108   55   57 1    
   109   55  121 1    
   110   56  122 1    
   111   56  123 1    
   112   56  124 1    
   113   57   58 2    
   114   57   59 am   BACKBONE|DICT|INTERRES
   115   59   60 1    
   116   59  125 1    
   117   60   61 1    
   118   60   62 1    
   119   60  126 1    
   120   61  127 1    
   121   61  128 1    
   122   61  129 1    
   123   62   63 2    
   124   62   64 am   BACKBONE|DICT|INTERRES
   125   64   65 1    
   126   64  130 1    
   127   65   66 1    
   128   65   69 1    
   129   65  131 1    
   130   66   67 am   BACKBONE|DICT|INTERRES
   131   66   68 2    
   132   67  132 1    
   133   67  133 1    
   134   69   70 1    
   135   69  134 1    
   136   69  135 1    
   137   70   71 1    
   138   71  136 1    
   139   71  137 1    
@<TRIPOS>SUBSTRUCTURE
     1 UNK         1 GROUP             0       ****    0 ROOT    
