@<TRIPOS>MOLECULE
3R136
137   139    1
SMALL
USER_CHARGES


@<TRIPOS>ATOM
      1 CA         26.2164   25.8747    4.9289 C.3       0 UNK        -0.1979 
      2 C          26.8266   24.6880    4.2003 C.2       0 UNK         0.4864 
      3 O          26.4604   23.5433    4.4727 O.2       0 UNK        -0.5359 
      4 N          27.7411   24.9490    3.2586 N.am      1 UNK        -0.4318 
      5 CA         28.3905   23.9489    2.4079 C.3       1 UNK         0.0824 
      6 C6         29.7262   24.4800    1.8335 C.3       12 UNK        -0.0944 
      7 S7         31.0653   24.6385    3.0618 S.3       12 UNK        -0.2672 
      8 C8         32.5277   24.1527    2.0751 C.3       12 UNK         0.0333 
      9 C9         33.0581   25.2846    1.1970 C.ar      12 UNK        -0.0807 
     10 C10        34.3544   25.7786    1.3831 C.ar      12 UNK        -0.0894 
     11 C11        34.8490   26.8057    0.5708 C.ar      12 UNK        -0.0804 
     12 C12        34.0241   27.3695   -0.4080 C.ar      12 UNK        -0.0824 
     13 C13        32.7235   26.8958   -0.5931 C.ar      12 UNK        -0.0762 
     14 C14        32.2676   25.8278    0.1798 C.ar      12 UNK        -0.0782 
     15 C15        31.7999   27.5374   -1.6183 C.3       12 UNK         0.0230 
     16 S16        31.1434   29.1365   -1.0378 S.3       12 UNK        -0.2608 
     17 C17        30.1384   28.6818    0.4192 C.3       12 UNK        -0.0989 
     18 CA         28.6166   28.6777    0.1251 C.3       5 UNK         0.0716 
     19 N          28.1871   27.5421   -0.6825 N.am      5 UNK        -0.4135 
     20 C          27.8227   27.5887   -1.9688 C.2       4 UNK         0.5031 
     21 O          27.9646   28.5694   -2.6997 O.2       4 UNK        -0.5229 
     22 CA         27.1262   26.3317   -2.5134 C.3       4 UNK         0.0329 
     23 CB         28.1538   25.2416   -2.8610 C.3       4 UNK        -0.2001 
     24 N          26.1405   25.8163   -1.5551 N.am      4 UNK        -0.4303 
     25 C          24.9454   26.3883   -1.3294 C.2       3 UNK         0.5044 
     26 O          24.5334   27.3516   -1.9776 O.2       3 UNK        -0.5152 
     27 CA         24.0680   25.8501   -0.1759 C.3       3 UNK         0.0319 
     28 CB         22.5791   25.7500   -0.5716 C.3       3 UNK        -0.2001 
     29 N          24.5407   24.6015    0.4346 N.am      3 UNK        -0.4354 
     30 C          24.6175   23.3835   -0.1241 C.2       2 UNK         0.4964 
     31 O          24.2081   23.1191   -1.2554 O.2       2 UNK        -0.5047 
     32 CA         25.3104   22.2899    0.7212 C.3       2 UNK         0.0288 
     33 CB         25.8731   21.1457   -0.1491 C.3       2 UNK        -0.2113 
     34 N          26.3620   22.8016    1.6174 N.am      2 UNK        -0.4145 
     35 C          27.4245   23.5470    1.2743 C.2       1 UNK         0.5006 
     36 O          27.6188   23.9663    0.1315 O.2       1 UNK        -0.5103 
     37 C          27.8065   28.5672    1.4229 C.2       5 UNK         0.5055 
     38 O          27.9237   27.5550    2.1190 O.2       5 UNK        -0.5220 
     39 N          26.9864   29.5849    1.7171 N.am      6 UNK        -0.4450 
     40 CA         26.1863   29.6618    2.9444 C.3       6 UNK         0.0367 
     41 CB         25.0957   30.7328    2.7855 C.3       6 UNK        -0.1929 
     42 C          27.0506   29.9454    4.1844 C.2       6 UNK         0.5070 
     43 O          26.7649   29.4226    5.2616 O.2       6 UNK        -0.5237 
     44 N          28.1137   30.7388    4.0021 N.am      7 UNK        -0.4739 
     45 CA         29.1555   30.9796    4.9965 C.3       7 UNK         0.0276 
     46 CB         29.7554   32.3787    4.7676 C.3       7 UNK        -0.1927 
     47 C          30.2015   29.8579    4.9017 C.2       7 UNK         0.5013 
     48 O          31.2544   30.0464    4.2866 O.2       7 UNK        -0.5193 
     49 N          29.8591   28.6937    5.4690 N.am      8 UNK        -0.4253 
     50 CA         30.7035   27.4984    5.5271 C.3       8 UNK         0.0242 
     51 CB         29.9051   26.3468    6.1552 C.3       8 UNK        -0.2000 
     52 C          31.9943   27.7410    6.3231 C.2       8 UNK         0.4948 
     53 O          31.9884   28.5368    7.2657 O.2       8 UNK        -0.5275 
     54 N          33.0825   27.0724    5.9151 N.am      9 UNK        -0.4246 
     55 CA         34.4625   27.1685    6.4278 C.3       9 UNK         0.0261 
     56 CB         34.5487   26.7660    7.9132 C.3       9 UNK        -0.1959 
     57 C          35.1470   28.5287    6.1782 C.2       9 UNK         0.5033 
     58 O          36.3432   28.5537    5.8883 O.2       9 UNK        -0.5390 
     59 N          34.3817   29.6242    6.2535 N.am      10 UNK        -0.4215 
     60 CA         34.7637   30.9727    5.8310 C.3       10 UNK         0.0240 
     61 CB         33.7611   31.9787    6.4184 C.3       10 UNK        -0.1982 
     62 C          34.8438   31.1240    4.2989 C.2       10 UNK         0.4970 
     63 O          35.4847   32.0659    3.8308 O.2       10 UNK        -0.4916 
     64 N          34.2057   30.2044    3.5602 N.am      11 UNK        -0.4279 
     65 CA         34.1619   30.1326    2.0909 C.3       11 UNK         0.1003 
     66 C          33.3291   31.2826    1.4555 C.2       11 UNK         0.5709 
     67 N          32.2207   31.6725    2.0728 N.am      11 UNK        -0.7358 
     68 O          33.6745   31.8230    0.4069 O.2       11 UNK        -0.4999 
     69 C69        35.5645   29.9398    1.4420 C.3       12 UNK        -0.0954 
     70 S70        36.4486   28.4839    2.1003 S.3       12 UNK        -0.2268 
     71 C71        36.2811   27.2923    0.7378 C.3       12 UNK         0.0203 
     72 H72        26.3728   25.7792    6.0029 H         1 UNK         0.0888 
     73 H73        26.6612   26.8145    4.6047 H         1 UNK         0.0888 
     74 H74        25.1444   25.9231    4.7412 H         1 UNK         0.0888 
     75 H75        27.9461   25.9173    3.0169 H         1 UNK         0.3017 
     76 H76        28.6025   23.0526    2.9950 H         1 UNK         0.0873 
     77 H77        30.0757   23.8113    1.0446 H         1 UNK         0.0745 
     78 H78        29.5670   25.4551    1.3716 H         1 UNK         0.0745 
     79 H79        33.3025   23.8235    2.7690 H         1 UNK         0.0705 
     80 H80        32.2952   23.2852    1.4562 H         1 UNK         0.0705 
     81 H81        34.9886   25.3563    2.1507 H         1 UNK         0.1334 
     82 H82        34.3886   28.1803   -1.0237 H         1 UNK         0.1417 
     83 H83        31.2804   25.4410   -0.0088 H         1 UNK         0.1562 
     84 H84        30.9675   26.8763   -1.8644 H         1 UNK         0.0748 
     85 H85        32.3467   27.6976   -2.5485 H         1 UNK         0.0748 
     86 H86        30.3697   29.4161    1.1939 H         1 UNK         0.0940 
     87 H87        30.4579   27.7239    0.8278 H         1 UNK         0.0940 
     88 H88        28.3497   29.6138   -0.3709 H         1 UNK         0.0703 
     89 H89        27.9937   26.7002   -0.1573 H         1 UNK         0.3081 
     90 H90        26.6037   26.6045   -3.4330 H         1 UNK         0.0719 
     91 H91        28.8333   25.5864   -3.6415 H         1 UNK         0.0809 
     92 H92        28.7649   24.9633   -2.0021 H         1 UNK         0.0809 
     93 H93        27.6656   24.3396   -3.2303 H         1 UNK         0.0809 
     94 H94        26.4350   25.0314   -0.9804 H         1 UNK         0.2990 
     95 H95        24.1405   26.6009    0.6125 H         1 UNK         0.0690 
     96 H96        21.9706   25.3903    0.2581 H         1 UNK         0.0788 
     97 H97        22.4269   25.0781   -1.4166 H         1 UNK         0.0788 
     98 H98        22.1839   26.7247   -0.8605 H         1 UNK         0.0788 
     99 H99        24.9139   24.6972    1.3683 H         1 UNK         0.2993 
    100 H100       24.5340   21.8699    1.3626 H         1 UNK         0.0949 
    101 H101       26.3362   20.3723    0.4637 H         1 UNK         0.0767 
    102 H102       25.0834   20.6660   -0.7289 H         1 UNK         0.0767 
    103 H103       26.6220   21.5079   -0.8546 H         1 UNK         0.0767 
    104 H104       26.2478   22.5955    2.6054 H         1 UNK         0.3013 
    105 H105       26.9204   30.3662    1.0796 H         1 UNK         0.3121 
    106 H106       25.6952   28.6979    3.0960 H         1 UNK         0.0774 
    107 H107       25.5196   31.7239    2.6193 H         1 UNK         0.0815 
    108 H108       24.4341   30.5047    1.9496 H         1 UNK         0.0815 
    109 H109       24.4750   30.7907    3.6809 H         1 UNK         0.0815 
    110 H110       28.2846   31.1024    3.0763 H         1 UNK         0.2987 
    111 H111       28.7270   30.9620    6.0014 H         1 UNK         0.0949 
    112 H112       29.0045   33.1556    4.9112 H         1 UNK         0.0806 
    113 H113       30.5625   32.5782    5.4727 H         1 UNK         0.0806 
    114 H114       30.1607   32.4927    3.7629 H         1 UNK         0.0806 
    115 H115       28.9560   28.6352    5.9195 H         1 UNK         0.3010 
    116 H116       30.9658   27.2354    4.5005 H         1 UNK         0.0829 
    117 H117       29.5991   26.5755    7.1769 H         1 UNK         0.0813 
    118 H118       30.4961   25.4303    6.1869 H         1 UNK         0.0813 
    119 H119       29.0110   26.1295    5.5758 H         1 UNK         0.0813 
    120 H120       32.9721   26.4501    5.1253 H         1 UNK         0.3038 
    121 H121       35.0331   26.4320    5.8593 H         1 UNK         0.0769 
    122 H122       34.1195   25.7785    8.0821 H         1 UNK         0.0811 
    123 H123       34.0302   27.4728    8.5616 H         1 UNK         0.0811 
    124 H124       35.5874   26.7289    8.2442 H         1 UNK         0.0811 
    125 H125       33.4229   29.4897    6.5688 H         1 UNK         0.3204 
    126 H126       35.7538   31.1918    6.2359 H         1 UNK         0.0748 
    127 H127       32.7484   31.7849    6.0644 H         1 UNK         0.0771 
    128 H128       33.7494   31.9377    7.5078 H         1 UNK         0.0771 
    129 H129       34.0177   33.0004    6.1348 H         1 UNK         0.0771 
    130 H130       33.6323   29.5285    4.0422 H         1 UNK         0.2980 
    131 H131       33.5875   29.2335    1.8655 H         1 UNK         0.0545 
    132 H132       31.6718   32.4177    1.6777 H         1 UNK         0.3459 
    133 H133       31.9176   31.1955    2.9173 H         1 UNK         0.3459 
    134 H134       36.1889   30.8188    1.6057 H         1 UNK         0.0616 
    135 H135       35.4758   29.8416    0.3596 H         1 UNK         0.0616 
    136 H136       36.9321   26.4402    0.9388 H         1 UNK         0.0634 
    137 H137       36.6483   27.7413   -0.1864 H         1 UNK         0.0634 
@<TRIPOS>BOND
     1    1    2 1    
     2    1   72 1    
     3    1   73 1    
     4    1   74 1    
     5    2    3 2    
     6    2    4 am   BACKBONE|DICT|INTERRES
     7    4    5 1    
     8    4   75 1    
     9    5    6 1    
    10    5   35 1    
    11    5   76 1    
    12    6    7 1    
    13    6   77 1    
    14    6   78 1    
    15    7    8 1    
    16    8    9 1    
    17    8   79 1    
    18    8   80 1    
    19    9   10 ar   
    20    9   14 ar   
    21   10   11 ar   
    22   10   81 1    
    23   11   12 ar   
    24   11   71 1    
    25   12   13 ar   
    26   12   82 1    
    27   13   14 ar   
    28   13   15 1    
    29   14   83 1    
    30   15   16 1    
    31   15   84 1    
    32   15   85 1    
    33   16   17 1    
    34   17   18 1    
    35   17   86 1    
    36   17   87 1    
    37   18   19 1    
    38   18   37 1    
    39   18   88 1    
    40   19   20 am   BACKBONE|DICT|INTERRES
    41   19   89 1    
    42   20   21 2    
    43   20   22 1    
    44   22   23 1    
    45   22   24 1    
    46   22   90 1    
    47   23   91 1    
    48   23   92 1    
    49   23   93 1    
    50   24   25 am   BACKBONE|DICT|INTERRES
    51   24   94 1    
    52   25   26 2    
    53   25   27 1    
    54   27   28 1    
    55   27   29 1    
    56   27   95 1    
    57   28   96 1    
    58   28   97 1    
    59   28   98 1    
    60   29   30 am   BACKBONE|DICT|INTERRES
    61   29   99 1    
    62   30   31 2    
    63   30   32 1    
    64   32   33 1    
    65   32   34 1    
    66   32  100 1    
    67   33  101 1    
    68   33  102 1    
    69   33  103 1    
    70   34   35 am   BACKBONE|DICT|INTERRES
    71   34  104 1    
    72   35   36 2    
    73   37   38 2    
    74   37   39 am   BACKBONE|DICT|INTERRES
    75   39   40 1    
    76   39  105 1    
    77   40   41 1    
    78   40   42 1    
    79   40  106 1    
    80   41  107 1    
    81   41  108 1    
    82   41  109 1    
    83   42   43 2    
    84   42   44 am   BACKBONE|DICT|INTERRES
    85   44   45 1    
    86   44  110 1    
    87   45   46 1    
    88   45   47 1    
    89   45  111 1    
    90   46  112 1    
    91   46  113 1    
    92   46  114 1    
    93   47   48 2    
    94   47   49 am   BACKBONE|DICT|INTERRES
    95   49   50 1    
    96   49  115 1    
    97   50   51 1    
    98   50   52 1    
    99   50  116 1    
   100   51  117 1    
   101   51  118 1    
   102   51  119 1    
   103   52   53 2    
   104   52   54 am   BACKBONE|DICT|INTERRES
   105   54   55 1    
   106   54  120 1    
   107   55   56 1    
   108   55   57 1    
   109   55  121 1    
   110   56  122 1    
   111   56  123 1    
   112   56  124 1    
   113   57   58 2    
   114   57   59 am   BACKBONE|DICT|INTERRES
   115   59   60 1    
   116   59  125 1    
   117   60   61 1    
   118   60   62 1    
   119   60  126 1    
   120   61  127 1    
   121   61  128 1    
   122   61  129 1    
   123   62   63 2    
   124   62   64 am   BACKBONE|DICT|INTERRES
   125   64   65 1    
   126   64  130 1    
   127   65   66 1    
   128   65   69 1    
   129   65  131 1    
   130   66   67 am   BACKBONE|DICT|INTERRES
   131   66   68 2    
   132   67  132 1    
   133   67  133 1    
   134   69   70 1    
   135   69  134 1    
   136   69  135 1    
   137   70   71 1    
   138   71  136 1    
   139   71  137 1    
@<TRIPOS>SUBSTRUCTURE
     1 UNK         1 GROUP             0       ****    0 ROOT    
