@<TRIPOS>MOLECULE
3R136
137   139    1
SMALL
USER_CHARGES


@<TRIPOS>ATOM
      1 CA         30.0003   19.9644    3.4500 C.3       0 UNK        -0.1979 
      2 C          29.3108   21.1151    2.7318 C.2       0 UNK         0.4864 
      3 O          29.1424   21.0612    1.5125 O.2       0 UNK        -0.5359 
      4 N          28.9206   22.1570    3.4766 N.am      1 UNK        -0.4318 
      5 CA         28.2072   23.3319    2.9662 C.3       1 UNK         0.0824 
      6 C6         28.2361   24.5107    3.9722 C.3       12 UNK        -0.0944 
      7 S7         29.9255   24.9816    4.4961 S.3       12 UNK        -0.2672 
      8 C8         30.2328   26.5154    3.5629 C.3       12 UNK         0.0333 
      9 C9         31.2812   26.3225    2.4773 C.ar      12 UNK        -0.0807 
     10 C10        32.5544   26.8789    2.6196 C.ar      12 UNK        -0.0894 
     11 C11        33.5108   26.7352    1.6100 C.ar      12 UNK        -0.0804 
     12 C12        33.1883   26.0232    0.4503 C.ar      12 UNK        -0.0824 
     13 C13        31.9220   25.4468    0.3035 C.ar      12 UNK        -0.0762 
     14 C14        30.9774   25.6034    1.3194 C.ar      12 UNK        -0.0782 
     15 C15        31.5842   24.6293   -0.9351 C.3       12 UNK         0.0230 
     16 S16        30.6501   25.5959   -2.1639 S.3       12 UNK        -0.2608 
     17 C17        28.9127   25.3351   -1.6605 C.3       12 UNK        -0.0989 
     18 CA         28.1801   26.6781   -1.3564 C.3       5 UNK         0.0716 
     19 N          26.9577   26.8157   -2.1477 N.am      5 UNK        -0.4135 
     20 C          26.4604   27.9757   -2.6001 C.2       4 UNK         0.5031 
     21 O          27.0202   29.0618   -2.4390 O.2       4 UNK        -0.5229 
     22 CA         25.1154   27.9368   -3.3496 C.3       4 UNK         0.0329 
     23 CB         25.3453   28.0286   -4.8669 C.3       4 UNK        -0.2001 
     24 N          24.3154   26.7451   -3.0578 N.am      4 UNK        -0.4303 
     25 C          23.6887   26.5082   -1.8974 C.2       3 UNK         0.5044 
     26 O          23.6712   27.3021   -0.9556 O.2       3 UNK        -0.5152 
     27 CA         22.9666   25.1537   -1.7473 C.3       3 UNK         0.0319 
     28 CB         22.9928   24.2719   -3.0181 C.3       3 UNK        -0.2001 
     29 N          23.4634   24.3914   -0.5953 N.am      3 UNK        -0.4354 
     30 C          24.7331   24.0331   -0.3532 C.2       2 UNK         0.4964 
     31 O          25.6879   24.3128   -1.0839 O.2       2 UNK        -0.5047 
     32 CA         24.9572   23.1579    0.8846 C.3       2 UNK         0.0288 
     33 CB         24.8175   21.6702    0.4972 C.3       2 UNK        -0.2113 
     34 N          26.2817   23.4314    1.4403 N.am      2 UNK        -0.4145 
     35 C          26.7567   22.9575    2.5981 C.2       1 UNK         0.5006 
     36 O          26.0989   22.2599    3.3762 O.2       1 UNK        -0.5103 
     37 C          27.7973   26.8811    0.1224 C.2       5 UNK         0.5055 
     38 O          27.6645   25.9149    0.8745 O.2       5 UNK        -0.5220 
     39 N          27.5663   28.1445    0.4910 N.am      6 UNK        -0.4450 
     40 CA         27.1235   28.5823    1.8137 C.3       6 UNK         0.0367 
     41 CB         25.6057   28.8424    1.7817 C.3       6 UNK        -0.1929 
     42 C          27.9414   29.8083    2.2508 C.2       6 UNK         0.5070 
     43 O          27.3802   30.7766    2.7658 O.2       6 UNK        -0.5237 
     44 N          29.2564   29.7617    1.9961 N.am      7 UNK        -0.4739 
     45 CA         30.2123   30.8216    2.3204 C.3       7 UNK         0.0276 
     46 CB         31.5532   30.5064    1.6428 C.3       7 UNK        -0.1927 
     47 C          30.4064   30.9943    3.8364 C.2       7 UNK         0.5013 
     48 O          30.3925   30.0075    4.5774 O.2       7 UNK        -0.5193 
     49 N          30.6063   32.2481    4.2595 N.am      8 UNK        -0.4253 
     50 CA         30.8419   32.6301    5.6516 C.3       8 UNK         0.0242 
     51 CB         30.6924   34.1549    5.7828 C.3       8 UNK        -0.2000 
     52 C          32.2272   32.1873    6.1492 C.2       8 UNK         0.4948 
     53 O          33.1690   32.0990    5.3558 O.2       8 UNK        -0.5275 
     54 N          32.3180   31.9399    7.4652 N.am      9 UNK        -0.4246 
     55 CA         33.5317   31.6242    8.2359 C.3       9 UNK         0.0261 
     56 CB         34.4117   32.8863    8.3645 C.3       9 UNK        -0.1959 
     57 C          34.3321   30.4135    7.7111 C.2       9 UNK         0.5033 
     58 O          35.5513   30.3702    7.8878 O.2       9 UNK        -0.5390 
     59 N          33.6457   29.4756    7.0383 N.am      10 UNK        -0.4215 
     60 CA         34.2012   28.3188    6.3227 C.3       10 UNK         0.0240 
     61 CB         34.6922   27.2510    7.3232 C.3       10 UNK        -0.1982 
     62 C          35.2775   28.7083    5.2838 C.2       10 UNK         0.4970 
     63 O          36.2606   27.9833    5.1235 O.2       10 UNK        -0.4916 
     64 N          35.0794   29.8587    4.6228 N.am      11 UNK        -0.4279 
     65 CA         36.0196   30.5080    3.6920 C.3       11 UNK         0.1003 
     66 C          37.2955   31.0986    4.3689 C.2       11 UNK         0.5709 
     67 N          37.3890   31.1722    5.6923 N.am      11 UNK        -0.7358 
     68 O          38.2142   31.5359    3.6794 O.2       11 UNK        -0.4999 
     69 C69        36.3585   29.6570    2.4294 C.3       12 UNK        -0.0954 
     70 S70        34.8796   29.1309    1.5007 S.3       12 UNK        -0.2268 
     71 C71        34.8947   27.3359    1.7929 C.3       12 UNK         0.0203 
     72 H72        30.9996   19.8130    3.0427 H         1 UNK         0.0888 
     73 H73        30.0950   20.1498    4.5199 H         1 UNK         0.0888 
     74 H74        29.4330   19.0440    3.3142 H         1 UNK         0.0888 
     75 H75        29.0776   22.1462    4.4739 H         1 UNK         0.3017 
     76 H76        28.7102   23.6437    2.0518 H         1 UNK         0.0873 
     77 H77        27.6808   24.2466    4.8744 H         1 UNK         0.0745 
     78 H78        27.7214   25.3783    3.5568 H         1 UNK         0.0745 
     79 H79        30.5522   27.2858    4.2661 H         1 UNK         0.0705 
     80 H80        29.3156   26.8869    3.1118 H         1 UNK         0.0705 
     81 H81        32.8009   27.4385    3.5103 H         1 UNK         0.1334 
     82 H82        33.9264   25.9072   -0.3318 H         1 UNK         0.1417 
     83 H83        30.0031   25.1602    1.2083 H         1 UNK         0.1562 
     84 H84        31.0308   23.7306   -0.6578 H         1 UNK         0.0748 
     85 H85        32.5034   24.2765   -1.4053 H         1 UNK         0.0748 
     86 H86        28.8628   24.6199   -0.8391 H         1 UNK         0.0940 
     87 H87        28.4300   24.8169   -2.4910 H         1 UNK         0.0940 
     88 H88        28.8503   27.4993   -1.6204 H         1 UNK         0.0703 
     89 H89        26.3899   25.9785   -2.2146 H         1 UNK         0.3081 
     90 H90        24.5446   28.8142   -3.0376 H         1 UNK         0.0719 
     91 H91        25.9045   27.1714   -5.2443 H         1 UNK         0.0809 
     92 H92        24.4013   28.0809   -5.4097 H         1 UNK         0.0809 
     93 H93        25.9128   28.9250   -5.1219 H         1 UNK         0.0809 
     94 H94        24.2780   26.0344   -3.7743 H         1 UNK         0.2990 
     95 H95        21.9234   25.3922   -1.5343 H         1 UNK         0.0690 
     96 H96        22.4182   23.3578   -2.8670 H         1 UNK         0.0788 
     97 H97        24.0052   23.9760   -3.2963 H         1 UNK         0.0788 
     98 H98        22.5450   24.7863   -3.8695 H         1 UNK         0.0788 
     99 H99        22.7584   24.1247    0.0779 H         1 UNK         0.2993 
    100 H100       24.2100   23.4133    1.6389 H         1 UNK         0.0949 
    101 H101       24.8736   21.0160    1.3669 H         1 UNK         0.0767 
    102 H102       23.8572   21.4769    0.0170 H         1 UNK         0.0767 
    103 H103       25.5985   21.3652   -0.2007 H         1 UNK         0.0767 
    104 H104       26.8378   24.0951    0.9049 H         1 UNK         0.3013 
    105 H105       27.6644   28.8725   -0.2077 H         1 UNK         0.3121 
    106 H106       27.3101   27.8031    2.5536 H         1 UNK         0.0774 
    107 H107       25.2364   29.1405    2.7636 H         1 UNK         0.0815 
    108 H108       25.3480   29.6343    1.0776 H         1 UNK         0.0815 
    109 H109       25.0585   27.9459    1.4888 H         1 UNK         0.0815 
    110 H110       29.6373   28.9216    1.5866 H         1 UNK         0.2987 
    111 H111       29.8253   31.7563    1.9081 H         1 UNK         0.0949 
    112 H112       32.2929   31.2808    1.8514 H         1 UNK         0.0806 
    113 H113       31.9646   29.5629    1.9997 H         1 UNK         0.0806 
    114 H114       31.4505   30.4393    0.5597 H         1 UNK         0.0806 
    115 H115       30.6518   32.9911    3.5777 H         1 UNK         0.3010 
    116 H116       30.0777   32.1491    6.2664 H         1 UNK         0.0829 
    117 H117       29.7016   34.4860    5.4707 H         1 UNK         0.0813 
    118 H118       30.8274   34.4757    6.8167 H         1 UNK         0.0813 
    119 H119       31.4303   34.6859    5.1796 H         1 UNK         0.0813 
    120 H120       31.4744   32.0239    8.0168 H         1 UNK         0.3038 
    121 H121       33.1975   31.3495    9.2375 H         1 UNK         0.0769 
    122 H122       35.2473   32.7180    9.0451 H         1 UNK         0.0811 
    123 H123       33.8434   33.7293    8.7574 H         1 UNK         0.0811 
    124 H124       34.8305   33.1835    7.4021 H         1 UNK         0.0811 
    125 H125       32.6503   29.6184    6.9330 H         1 UNK         0.3204 
    126 H126       33.3758   27.8846    5.7577 H         1 UNK         0.0748 
    127 H127       34.9921   26.3380    6.8071 H         1 UNK         0.0771 
    128 H128       35.5526   27.5997    7.8955 H         1 UNK         0.0771 
    129 H129       33.9079   26.9786    8.0294 H         1 UNK         0.0771 
    130 H130       34.2735   30.4262    4.8646 H         1 UNK         0.2980 
    131 H131       35.4805   31.3878    3.3392 H         1 UNK         0.0545 
    132 H132       38.2199   31.5701    6.0992 H         1 UNK         0.3459 
    133 H133       36.6551   30.8209    6.2985 H         1 UNK         0.3459 
    134 H134       36.9684   30.2393    1.7369 H         1 UNK         0.0616 
    135 H135       36.9633   28.7890    2.6950 H         1 UNK         0.0616 
    136 H136       35.2400   27.1207    2.8034 H         1 UNK         0.0634 
    137 H137       35.6146   26.8707    1.1180 H         1 UNK         0.0634 
@<TRIPOS>BOND
     1    1    2 1    
     2    1   72 1    
     3    1   73 1    
     4    1   74 1    
     5    2    3 2    
     6    2    4 am   BACKBONE|DICT|INTERRES
     7    4    5 1    
     8    4   75 1    
     9    5    6 1    
    10    5   35 1    
    11    5   76 1    
    12    6    7 1    
    13    6   77 1    
    14    6   78 1    
    15    7    8 1    
    16    8    9 1    
    17    8   79 1    
    18    8   80 1    
    19    9   10 ar   
    20    9   14 ar   
    21   10   11 ar   
    22   10   81 1    
    23   11   12 ar   
    24   11   71 1    
    25   12   13 ar   
    26   12   82 1    
    27   13   14 ar   
    28   13   15 1    
    29   14   83 1    
    30   15   16 1    
    31   15   84 1    
    32   15   85 1    
    33   16   17 1    
    34   17   18 1    
    35   17   86 1    
    36   17   87 1    
    37   18   19 1    
    38   18   37 1    
    39   18   88 1    
    40   19   20 am   BACKBONE|DICT|INTERRES
    41   19   89 1    
    42   20   21 2    
    43   20   22 1    
    44   22   23 1    
    45   22   24 1    
    46   22   90 1    
    47   23   91 1    
    48   23   92 1    
    49   23   93 1    
    50   24   25 am   BACKBONE|DICT|INTERRES
    51   24   94 1    
    52   25   26 2    
    53   25   27 1    
    54   27   28 1    
    55   27   29 1    
    56   27   95 1    
    57   28   96 1    
    58   28   97 1    
    59   28   98 1    
    60   29   30 am   BACKBONE|DICT|INTERRES
    61   29   99 1    
    62   30   31 2    
    63   30   32 1    
    64   32   33 1    
    65   32   34 1    
    66   32  100 1    
    67   33  101 1    
    68   33  102 1    
    69   33  103 1    
    70   34   35 am   BACKBONE|DICT|INTERRES
    71   34  104 1    
    72   35   36 2    
    73   37   38 2    
    74   37   39 am   BACKBONE|DICT|INTERRES
    75   39   40 1    
    76   39  105 1    
    77   40   41 1    
    78   40   42 1    
    79   40  106 1    
    80   41  107 1    
    81   41  108 1    
    82   41  109 1    
    83   42   43 2    
    84   42   44 am   BACKBONE|DICT|INTERRES
    85   44   45 1    
    86   44  110 1    
    87   45   46 1    
    88   45   47 1    
    89   45  111 1    
    90   46  112 1    
    91   46  113 1    
    92   46  114 1    
    93   47   48 2    
    94   47   49 am   BACKBONE|DICT|INTERRES
    95   49   50 1    
    96   49  115 1    
    97   50   51 1    
    98   50   52 1    
    99   50  116 1    
   100   51  117 1    
   101   51  118 1    
   102   51  119 1    
   103   52   53 2    
   104   52   54 am   BACKBONE|DICT|INTERRES
   105   54   55 1    
   106   54  120 1    
   107   55   56 1    
   108   55   57 1    
   109   55  121 1    
   110   56  122 1    
   111   56  123 1    
   112   56  124 1    
   113   57   58 2    
   114   57   59 am   BACKBONE|DICT|INTERRES
   115   59   60 1    
   116   59  125 1    
   117   60   61 1    
   118   60   62 1    
   119   60  126 1    
   120   61  127 1    
   121   61  128 1    
   122   61  129 1    
   123   62   63 2    
   124   62   64 am   BACKBONE|DICT|INTERRES
   125   64   65 1    
   126   64  130 1    
   127   65   66 1    
   128   65   69 1    
   129   65  131 1    
   130   66   67 am   BACKBONE|DICT|INTERRES
   131   66   68 2    
   132   67  132 1    
   133   67  133 1    
   134   69   70 1    
   135   69  134 1    
   136   69  135 1    
   137   70   71 1    
   138   71  136 1    
   139   71  137 1    
@<TRIPOS>SUBSTRUCTURE
     1 UNK         1 GROUP             0       ****    0 ROOT    
