@<TRIPOS>MOLECULE
3R136
137   139    1
SMALL
USER_CHARGES


@<TRIPOS>ATOM
      1 CA         30.3991   20.9726   -1.9445 C.3       0 UNK        -0.1979 
      2 C          29.7212   22.1650   -1.2875 C.2       0 UNK         0.4864 
      3 O          28.5593   22.4425   -1.5867 O.2       0 UNK        -0.5359 
      4 N          30.4486   22.8798   -0.4139 N.am      1 UNK        -0.4318 
      5 CA         29.9933   24.0236    0.3952 C.3       1 UNK         0.0824 
      6 C6         29.0859   23.5981    1.5833 C.3       12 UNK        -0.0944 
      7 S7         29.9618   22.5064    2.7491 S.3       12 UNK        -0.2672 
      8 C8         28.8344   22.5204    4.1800 C.3       12 UNK         0.0333 
      9 C9         28.9178   23.8089    4.9912 C.ar      12 UNK        -0.0807 
     10 C10        30.1066   24.1520    5.6445 C.ar      12 UNK        -0.0894 
     11 C11        30.1830   25.3021    6.4378 C.ar      12 UNK        -0.0804 
     12 C12        29.0462   26.1019    6.5852 C.ar      12 UNK        -0.0824 
     13 C13        27.8547   25.7789    5.9299 C.ar      12 UNK        -0.0762 
     14 C14        27.7940   24.6295    5.1354 C.ar      12 UNK        -0.0782 
     15 C15        26.6365   26.6707    6.1133 C.3       12 UNK         0.0230 
     16 S16        26.8757   28.2800    5.2989 S.3       12 UNK        -0.2608 
     17 C17        26.0519   28.0259    3.6924 C.3       12 UNK        -0.0989 
     18 CA         26.8519   27.2112    2.6446 C.3       5 UNK         0.0716 
     19 N          26.1684   27.2016    1.3599 N.am      5 UNK        -0.4135 
     20 C          25.2128   26.3467    0.9876 C.2       4 UNK         0.5031 
     21 O          24.7524   25.4672    1.7168 O.2       4 UNK        -0.5229 
     22 CA         24.6923   26.4868   -0.4469 C.3       4 UNK         0.0329 
     23 CB         24.5726   27.9549   -0.9138 C.3       4 UNK        -0.2001 
     24 N          25.5674   25.7360   -1.3442 N.am      4 UNK        -0.4303 
     25 C          25.2020   25.2344   -2.5334 C.2       3 UNK         0.5044 
     26 O          24.0580   25.3290   -2.9833 O.2       3 UNK        -0.5152 
     27 CA         26.2820   24.4981   -3.3598 C.3       3 UNK         0.0319 
     28 CB         26.0085   24.5355   -4.8800 C.3       3 UNK        -0.2001 
     29 N          27.6501   24.9379   -3.0594 N.am      3 UNK        -0.4354 
     30 C          28.1657   26.1716   -3.2114 C.2       2 UNK         0.4964 
     31 O          27.5720   27.0933   -3.7730 O.2       2 UNK        -0.5047 
     32 CA         29.5694   26.4352   -2.6145 C.3       2 UNK         0.0288 
     33 CB         29.6966   27.8673   -2.0439 C.3       2 UNK        -0.2113 
     34 N          29.9983   25.4541   -1.6039 N.am      2 UNK        -0.4145 
     35 C          29.3613   25.1423   -0.4615 C.2       1 UNK         0.5006 
     36 O          28.2935   25.6531   -0.1202 O.2       1 UNK        -0.5103 
     37 C          28.2606   27.7548    2.3650 C.2       5 UNK         0.5055 
     38 O          28.3872   28.7534    1.6504 O.2       5 UNK        -0.5220 
     39 N          29.2911   27.0959    2.9175 N.am      6 UNK        -0.4450 
     40 CA         30.6981   27.4348    2.6776 C.3       6 UNK         0.0367 
     41 CB         31.6138   26.3327    3.2298 C.3       6 UNK        -0.1929 
     42 C          31.0993   28.7937    3.2676 C.2       6 UNK         0.5070 
     43 O          32.0030   29.4333    2.7312 O.2       6 UNK        -0.5237 
     44 N          30.3939   29.2350    4.3206 N.am      7 UNK        -0.4739 
     45 CA         30.5889   30.5142    5.0125 C.3       7 UNK         0.0276 
     46 CB         29.6800   30.5647    6.2509 C.3       7 UNK        -0.1927 
     47 C          30.3669   31.7580    4.1305 C.2       7 UNK         0.5013 
     48 O          30.8058   32.8432    4.5123 O.2       7 UNK        -0.5193 
     49 N          29.7313   31.5836    2.9603 N.am      8 UNK        -0.4253 
     50 CA         29.6510   32.5847    1.8931 C.3       8 UNK         0.0242 
     51 CB         28.7037   32.0756    0.7944 C.3       8 UNK        -0.2000 
     52 C          31.0280   32.9414    1.2961 C.2       8 UNK         0.4948 
     53 O          31.1963   34.0622    0.8132 O.2       8 UNK        -0.5275 
     54 N          31.9808   31.9999    1.3566 N.am      9 UNK        -0.4246 
     55 CA         33.3916   32.2065    1.0440 C.3       9 UNK         0.0261 
     56 CB         33.8879   31.0810    0.1166 C.3       9 UNK        -0.1959 
     57 C          34.1796   32.2635    2.3607 C.2       9 UNK         0.5033 
     58 O          34.6650   33.3353    2.7240 O.2       9 UNK        -0.5390 
     59 N          34.2548   31.1199    3.0538 N.am      10 UNK        -0.4215 
     60 CA         34.8883   30.8731    4.3492 C.3       10 UNK         0.0240 
     61 CB         36.3650   31.3234    4.3731 C.3       10 UNK        -0.1982 
     62 C          34.8171   29.3650    4.6248 C.2       10 UNK         0.4970 
     63 O          35.0172   28.5731    3.7009 O.2       10 UNK        -0.4916 
     64 N          34.5813   28.9951    5.8886 N.am      11 UNK        -0.4279 
     65 CA         34.6387   27.6011    6.3672 C.3       11 UNK         0.1003 
     66 C          36.0777   27.1059    6.6971 C.2       11 UNK         0.5709 
     67 N          37.0982   27.9555    6.6911 N.am      11 UNK        -0.7358 
     68 O          36.2751   25.9202    6.9509 O.2       11 UNK        -0.4999 
     69 C69        33.6738   27.3677    7.5599 C.3       12 UNK        -0.0954 
     70 S70        31.9319   27.4172    7.0288 S.3       12 UNK        -0.2268 
     71 C71        31.4878   25.6500    7.1497 C.3       12 UNK         0.0203 
     72 H72        29.8513   20.0589   -1.7150 H         1 UNK         0.0888 
     73 H73        30.4145   21.0987   -3.0271 H         1 UNK         0.0888 
     74 H74        31.4258   20.8469   -1.6023 H         1 UNK         0.0888 
     75 H75        31.3983   22.5880   -0.2304 H         1 UNK         0.3017 
     76 H76        30.8961   24.4697    0.8113 H         1 UNK         0.0873 
     77 H77        28.1893   23.0901    1.2236 H         1 UNK         0.0745 
     78 H78        28.7421   24.4697    2.1402 H         1 UNK         0.0745 
     79 H79        27.8156   22.3358    3.8351 H         1 UNK         0.0705 
     80 H80        29.0908   21.6831    4.8307 H         1 UNK         0.0705 
     81 H81        30.9728   23.5129    5.5375 H         1 UNK         0.1334 
     82 H82        29.0872   26.9849    7.2086 H         1 UNK         0.1417 
     83 H83        26.8665   24.3625    4.6461 H         1 UNK         0.1562 
     84 H84        26.4783   26.8393    7.1796 H         1 UNK         0.0748 
     85 H85        25.7304   26.1872    5.7450 H         1 UNK         0.0748 
     86 H86        25.8250   29.0157    3.2910 H         1 UNK         0.0940 
     87 H87        25.0833   27.5548    3.8672 H         1 UNK         0.0940 
     88 H88        26.9480   26.1811    2.9885 H         1 UNK         0.0703 
     89 H89        26.5527   27.8520    0.6866 H         1 UNK         0.3081 
     90 H90        23.6949   26.0400   -0.4630 H         1 UNK         0.0719 
     91 H91        24.0235   28.5568   -0.1873 H         1 UNK         0.0809 
     92 H92        25.5478   28.4206   -1.0658 H         1 UNK         0.0809 
     93 H93        24.0309   28.0208   -1.8575 H         1 UNK         0.0809 
     94 H94        26.5216   25.5987   -1.0177 H         1 UNK         0.2990 
     95 H95        26.2317   23.4542   -3.0451 H         1 UNK         0.0690 
     96 H96        26.7815   24.0045   -5.4362 H         1 UNK         0.0788 
     97 H97        25.9631   25.5572   -5.2592 H         1 UNK         0.0788 
     98 H98        25.0562   24.0587   -5.1179 H         1 UNK         0.0788 
     99 H99        28.2058   24.2466   -2.5653 H         1 UNK         0.2993 
    100 H100       30.2685   26.3454   -3.4486 H         1 UNK         0.0949 
    101 H101       28.9785   28.0497   -1.2418 H         1 UNK         0.0767 
    102 H102       30.6944   28.0494   -1.6441 H         1 UNK         0.0767 
    103 H103       29.5195   28.6176   -2.8163 H         1 UNK         0.0767 
    104 H104       30.8458   24.9471   -1.8219 H         1 UNK         0.3013 
    105 H105       29.1089   26.3164    3.5347 H         1 UNK         0.3121 
    106 H106       30.8433   27.4886    1.5961 H         1 UNK         0.0774 
    107 H107       31.6253   26.3307    4.3178 H         1 UNK         0.0815 
    108 H108       31.3109   25.3400    2.9010 H         1 UNK         0.0815 
    109 H109       32.6433   26.4884    2.9027 H         1 UNK         0.0815 
    110 H110       29.6583   28.6406    4.6764 H         1 UNK         0.2987 
    111 H111       31.6274   30.5418    5.3490 H         1 UNK         0.0949 
    112 H112       29.8361   29.7028    6.9001 H         1 UNK         0.0806 
    113 H113       29.8825   31.4569    6.8456 H         1 UNK         0.0806 
    114 H114       28.6256   30.5935    5.9748 H         1 UNK         0.0806 
    115 H115       29.3909   30.6566    2.7363 H         1 UNK         0.3010 
    116 H116       29.2290   33.4971    2.3203 H         1 UNK         0.0829 
    117 H117       29.0754   31.1585    0.3344 H         1 UNK         0.0813 
    118 H118       28.5910   32.8165    0.0014 H         1 UNK         0.0813 
    119 H119       27.7090   31.8702    1.1905 H         1 UNK         0.0813 
    120 H120       31.7584   31.1158    1.8066 H         1 UNK         0.3038 
    121 H121       33.5370   33.1568    0.5257 H         1 UNK         0.0769 
    122 H122       33.3846   31.1222   -0.8495 H         1 UNK         0.0811 
    123 H123       33.7138   30.0889    0.5353 H         1 UNK         0.0811 
    124 H124       34.9580   31.1750   -0.0723 H         1 UNK         0.0811 
    125 H125       33.7526   30.3093    2.6958 H         1 UNK         0.3204 
    126 H126       34.3238   31.4109    5.1127 H         1 UNK         0.0748 
    127 H127       36.8535   31.0233    5.3009 H         1 UNK         0.0771 
    128 H128       36.9309   30.8859    3.5499 H         1 UNK         0.0771 
    129 H129       36.4625   32.4063    4.3088 H         1 UNK         0.0771 
    130 H130       34.4358   29.6994    6.5966 H         1 UNK         0.2980 
    131 H131       34.3043   26.9518    5.5554 H         1 UNK         0.0545 
    132 H132       36.9560   28.9296    6.4842 H         1 UNK         0.3459 
    133 H133       38.0224   27.6136    6.9015 H         1 UNK         0.3459 
    134 H134       33.8272   28.1226    8.3326 H         1 UNK         0.0616 
    135 H135       33.8611   26.4063    8.0422 H         1 UNK         0.0616 
    136 H136       32.3054   25.0598    6.7329 H         1 UNK         0.0634 
    137 H137       31.4048   25.3739    8.2014 H         1 UNK         0.0634 
@<TRIPOS>BOND
     1    1    2 1    
     2    1   72 1    
     3    1   73 1    
     4    1   74 1    
     5    2    3 2    
     6    2    4 am   BACKBONE|DICT|INTERRES
     7    4    5 1    
     8    4   75 1    
     9    5    6 1    
    10    5   35 1    
    11    5   76 1    
    12    6    7 1    
    13    6   77 1    
    14    6   78 1    
    15    7    8 1    
    16    8    9 1    
    17    8   79 1    
    18    8   80 1    
    19    9   10 ar   
    20    9   14 ar   
    21   10   11 ar   
    22   10   81 1    
    23   11   12 ar   
    24   11   71 1    
    25   12   13 ar   
    26   12   82 1    
    27   13   14 ar   
    28   13   15 1    
    29   14   83 1    
    30   15   16 1    
    31   15   84 1    
    32   15   85 1    
    33   16   17 1    
    34   17   18 1    
    35   17   86 1    
    36   17   87 1    
    37   18   19 1    
    38   18   37 1    
    39   18   88 1    
    40   19   20 am   BACKBONE|DICT|INTERRES
    41   19   89 1    
    42   20   21 2    
    43   20   22 1    
    44   22   23 1    
    45   22   24 1    
    46   22   90 1    
    47   23   91 1    
    48   23   92 1    
    49   23   93 1    
    50   24   25 am   BACKBONE|DICT|INTERRES
    51   24   94 1    
    52   25   26 2    
    53   25   27 1    
    54   27   28 1    
    55   27   29 1    
    56   27   95 1    
    57   28   96 1    
    58   28   97 1    
    59   28   98 1    
    60   29   30 am   BACKBONE|DICT|INTERRES
    61   29   99 1    
    62   30   31 2    
    63   30   32 1    
    64   32   33 1    
    65   32   34 1    
    66   32  100 1    
    67   33  101 1    
    68   33  102 1    
    69   33  103 1    
    70   34   35 am   BACKBONE|DICT|INTERRES
    71   34  104 1    
    72   35   36 2    
    73   37   38 2    
    74   37   39 am   BACKBONE|DICT|INTERRES
    75   39   40 1    
    76   39  105 1    
    77   40   41 1    
    78   40   42 1    
    79   40  106 1    
    80   41  107 1    
    81   41  108 1    
    82   41  109 1    
    83   42   43 2    
    84   42   44 am   BACKBONE|DICT|INTERRES
    85   44   45 1    
    86   44  110 1    
    87   45   46 1    
    88   45   47 1    
    89   45  111 1    
    90   46  112 1    
    91   46  113 1    
    92   46  114 1    
    93   47   48 2    
    94   47   49 am   BACKBONE|DICT|INTERRES
    95   49   50 1    
    96   49  115 1    
    97   50   51 1    
    98   50   52 1    
    99   50  116 1    
   100   51  117 1    
   101   51  118 1    
   102   51  119 1    
   103   52   53 2    
   104   52   54 am   BACKBONE|DICT|INTERRES
   105   54   55 1    
   106   54  120 1    
   107   55   56 1    
   108   55   57 1    
   109   55  121 1    
   110   56  122 1    
   111   56  123 1    
   112   56  124 1    
   113   57   58 2    
   114   57   59 am   BACKBONE|DICT|INTERRES
   115   59   60 1    
   116   59  125 1    
   117   60   61 1    
   118   60   62 1    
   119   60  126 1    
   120   61  127 1    
   121   61  128 1    
   122   61  129 1    
   123   62   63 2    
   124   62   64 am   BACKBONE|DICT|INTERRES
   125   64   65 1    
   126   64  130 1    
   127   65   66 1    
   128   65   69 1    
   129   65  131 1    
   130   66   67 am   BACKBONE|DICT|INTERRES
   131   66   68 2    
   132   67  132 1    
   133   67  133 1    
   134   69   70 1    
   135   69  134 1    
   136   69  135 1    
   137   70   71 1    
   138   71  136 1    
   139   71  137 1    
@<TRIPOS>SUBSTRUCTURE
     1 UNK         1 GROUP             0       ****    0 ROOT    
