@<TRIPOS>MOLECULE
3R136
137   139    1
SMALL
USER_CHARGES


@<TRIPOS>ATOM
      1 CA         32.0706   20.5865   -0.7058 C.3       0 UNK        -0.1979 
      2 C          31.6184   22.0367   -0.6174 C.2       0 UNK         0.4864 
      3 O          32.3193   22.9256   -1.1020 O.2       0 UNK        -0.5359 
      4 N          30.4509   22.2813   -0.0049 N.am      1 UNK        -0.4318 
      5 CA         29.8630   23.6164    0.1740 C.3       1 UNK         0.0824 
      6 C6         28.8222   23.6193    1.3254 C.3       12 UNK        -0.0944 
      7 S7         28.7272   25.2229    2.1911 S.3       12 UNK        -0.2672 
      8 C8         29.4972   24.8277    3.7941 C.3       12 UNK         0.0333 
      9 C9         29.3329   25.9863    4.7653 C.ar      12 UNK        -0.0807 
     10 C10        30.3942   26.8594    5.0253 C.ar      12 UNK        -0.0894 
     11 C11        30.2172   27.9488    5.8847 C.ar      12 UNK        -0.0804 
     12 C12        28.9604   28.1860    6.4485 C.ar      12 UNK        -0.0824 
     13 C13        27.8906   27.3240    6.1914 C.ar      12 UNK        -0.0762 
     14 C14        28.0977   26.2005    5.3845 C.ar      12 UNK        -0.0782 
     15 C15        26.5152   27.6227    6.7798 C.3       12 UNK         0.0230 
     16 S16        25.1703   27.5839    5.5427 S.3       12 UNK        -0.2608 
     17 C17        25.7401   28.7721    4.2719 C.3       12 UNK        -0.0989 
     18 CA         26.3223   28.0608    3.0167 C.3       5 UNK         0.0716 
     19 N          25.4228   27.0611    2.4320 N.am      5 UNK        -0.4135 
     20 C          24.2565   27.2798    1.8115 C.2       4 UNK         0.5031 
     21 O          23.7489   28.3910    1.6455 O.2       4 UNK        -0.5229 
     22 CA         23.5549   26.0222    1.2606 C.3       4 UNK         0.0329 
     23 CB         22.0275   26.1129    1.4294 C.3       4 UNK        -0.2001 
     24 N          23.8613   25.7298   -0.1463 N.am      4 UNK        -0.4303 
     25 C          25.0770   25.6439   -0.7048 C.2       3 UNK         0.5044 
     26 O          26.1319   25.8922   -0.1161 O.2       3 UNK        -0.5152 
     27 CA         25.1265   25.1744   -2.1645 C.3       3 UNK         0.0319 
     28 CB         24.6246   26.2482   -3.1474 C.3       3 UNK        -0.2001 
     29 N          26.5038   24.8053   -2.4749 N.am      3 UNK        -0.4354 
     30 C          26.9066   23.9462   -3.4132 C.2       2 UNK         0.4964 
     31 O          26.1450   23.4086   -4.2181 O.2       2 UNK        -0.5047 
     32 CA         28.4044   23.5911   -3.4476 C.3       2 UNK         0.0288 
     33 CB         29.2108   24.6305   -4.2525 C.3       2 UNK        -0.2113 
     34 N          28.9948   23.3353   -2.1227 N.am      2 UNK        -0.4145 
     35 C          29.2747   24.2013   -1.1336 C.2       1 UNK         0.5006 
     36 O          29.0736   25.4132   -1.2149 O.2       1 UNK        -0.5103 
     37 C          26.9111   29.0276    1.9664 C.2       5 UNK         0.5055 
     38 O          27.2082   30.1785    2.2935 O.2       5 UNK        -0.5220 
     39 N          27.0864   28.5467    0.7250 N.am      6 UNK        -0.4450 
     40 CA         27.6807   29.3124   -0.3716 C.3       6 UNK         0.0367 
     41 CB         27.3043   28.6780   -1.7167 C.3       6 UNK        -0.1929 
     42 C          29.2036   29.4477   -0.2343 C.2       6 UNK         0.5070 
     43 O          29.7421   30.5159   -0.5279 O.2       6 UNK        -0.5237 
     44 N          29.8770   28.3936    0.2474 N.am      7 UNK        -0.4739 
     45 CA         31.3223   28.3650    0.4982 C.3       7 UNK         0.0276 
     46 CB         31.8166   26.9088    0.4638 C.3       7 UNK        -0.1927 
     47 C          31.7020   29.0742    1.8126 C.2       7 UNK         0.5013 
     48 O          32.4158   28.5015    2.6366 O.2       7 UNK        -0.5193 
     49 N          31.2388   30.3202    1.9836 N.am      8 UNK        -0.4253 
     50 CA         31.4364   31.1545    3.1749 C.3       8 UNK         0.0242 
     51 CB         30.7268   32.5023    2.9764 C.3       8 UNK        -0.2000 
     52 C          32.9128   31.3678    3.5566 C.2       8 UNK         0.4948 
     53 O          33.2286   31.4477    4.7439 O.2       8 UNK        -0.5275 
     54 N          33.7930   31.3982    2.5457 N.am      9 UNK        -0.4246 
     55 CA         35.2473   31.4886    2.6865 C.3       9 UNK         0.0261 
     56 CB         35.8783   31.6622    1.2956 C.3       9 UNK        -0.1959 
     57 C          35.8896   30.2962    3.4205 C.2       9 UNK         0.5033 
     58 O          36.9594   30.4729    4.0055 O.2       9 UNK        -0.5390 
     59 N          35.2380   29.1205    3.4180 N.am      10 UNK        -0.4215 
     60 CA         35.7055   27.9211    4.1253 C.3       10 UNK         0.0240 
     61 CB         34.8668   26.7054    3.6981 C.3       10 UNK        -0.1982 
     62 C          35.6892   28.0710    5.6577 C.2       10 UNK         0.4970 
     63 O          36.4319   27.3610    6.3367 O.2       10 UNK        -0.4916 
     64 N          34.8648   28.9944    6.1665 N.am      11 UNK        -0.4279 
     65 CA         34.7973   29.3772    7.5818 C.3       11 UNK         0.1003 
     66 C          35.8437   30.4600    7.9815 C.2       11 UNK         0.5709 
     67 N          36.6735   30.9684    7.0756 N.am      11 UNK        -0.7358 
     68 O          35.9186   30.8371    9.1487 O.2       11 UNK        -0.4999 
     69 C69        33.3571   29.7928    7.9800 C.3       12 UNK        -0.0954 
     70 S70        32.1579   28.4316    7.7807 S.3       12 UNK        -0.2268 
     71 C71        31.3750   28.8803    6.2028 C.3       12 UNK         0.0203 
     72 H72        33.0326   20.4633   -0.2090 H         1 UNK         0.0888 
     73 H73        31.3585   19.9069   -0.2380 H         1 UNK         0.0888 
     74 H74        32.1856   20.2922   -1.7487 H         1 UNK         0.0888 
     75 H75        29.9233   21.5101    0.3802 H         1 UNK         0.3017 
     76 H76        30.6858   24.2709    0.4629 H         1 UNK         0.0873 
     77 H77        27.8256   23.3568    0.9640 H         1 UNK         0.0745 
     78 H78        29.0717   22.8553    2.0633 H         1 UNK         0.0745 
     79 H79        29.0350   23.9338    4.2156 H         1 UNK         0.0705 
     80 H80        30.5522   24.5948    3.6411 H         1 UNK         0.0705 
     81 H81        31.3552   26.6961    4.5564 H         1 UNK         0.1334 
     82 H82        28.8198   29.0439    7.0920 H         1 UNK         0.1417 
     83 H83        27.2751   25.5277    5.1825 H         1 UNK         0.1562 
     84 H84        26.5062   28.5992    7.2666 H         1 UNK         0.0748 
     85 H85        26.2988   26.8894    7.5577 H         1 UNK         0.0748 
     86 H86        26.4817   29.4377    4.7176 H         1 UNK         0.0940 
     87 H87        24.8973   29.4056    3.9903 H         1 UNK         0.0940 
     88 H88        27.1925   27.4987    3.3416 H         1 UNK         0.0703 
     89 H89        25.7795   26.1157    2.4368 H         1 UNK         0.3081 
     90 H90        23.8959   25.1662    1.8467 H         1 UNK         0.0719 
     91 H91        21.7620   26.3343    2.4642 H         1 UNK         0.0809 
     92 H92        21.5982   26.9001    0.8081 H         1 UNK         0.0809 
     93 H93        21.5405   25.1737    1.1664 H         1 UNK         0.0809 
     94 H94        23.0635   25.5271   -0.7309 H         1 UNK         0.2990 
     95 H95        24.4955   24.2868   -2.2455 H         1 UNK         0.0690 
     96 H96        24.5466   25.8470   -4.1580 H         1 UNK         0.0788 
     97 H97        25.2941   27.1055   -3.1881 H         1 UNK         0.0788 
     98 H98        23.6352   26.6142   -2.8709 H         1 UNK         0.0788 
     99 H99        27.1959   25.1831   -1.8297 H         1 UNK         0.2993 
    100 H100       28.4809   22.6432   -3.9832 H         1 UNK         0.0949 
    101 H101       29.1450   25.6285   -3.8181 H         1 UNK         0.0767 
    102 H102       30.2646   24.3575   -4.3085 H         1 UNK         0.0767 
    103 H103       28.8381   24.7009   -5.2752 H         1 UNK         0.0767 
    104 H104       29.1831   22.3619   -1.9290 H         1 UNK         0.3013 
    105 H105       26.8168   27.5854    0.5243 H         1 UNK         0.3121 
    106 H106       27.2603   30.3204   -0.3524 H         1 UNK         0.0774 
    107 H107       26.2250   28.7008   -1.8603 H         1 UNK         0.0815 
    108 H108       27.7539   29.2229   -2.5477 H         1 UNK         0.0815 
    109 H109       27.6370   27.6420   -1.7858 H         1 UNK         0.0815 
    110 H110       29.3622   27.5500    0.4650 H         1 UNK         0.2987 
    111 H111       31.8266   28.9004   -0.3091 H         1 UNK         0.0949 
    112 H112       31.3981   26.3288    1.2863 H         1 UNK         0.0806 
    113 H113       31.5516   26.4198   -0.4734 H         1 UNK         0.0806 
    114 H114       32.9025   26.8616    0.5553 H         1 UNK         0.0806 
    115 H115       30.6662   30.7040    1.2380 H         1 UNK         0.3010 
    116 H116       30.9531   30.6392    4.0050 H         1 UNK         0.0829 
    117 H117       31.1345   33.0531    2.1279 H         1 UNK         0.0813 
    118 H118       30.8343   33.1340    3.8594 H         1 UNK         0.0813 
    119 H119       29.6584   32.3649    2.8061 H         1 UNK         0.0813 
    120 H120       33.4325   31.3208    1.6058 H         1 UNK         0.3038 
    121 H121       35.4637   32.3827    3.2750 H         1 UNK         0.0769 
    122 H122       35.5059   32.5581    0.7984 H         1 UNK         0.0811 
    123 H123       35.6739   30.8076    0.6493 H         1 UNK         0.0811 
    124 H124       36.9623   31.7629    1.3689 H         1 UNK         0.0811 
    125 H125       34.3305   29.0506    2.9659 H         1 UNK         0.3204 
    126 H126       36.7401   27.7423    3.8249 H         1 UNK         0.0748 
    127 H127       33.8344   26.7881    4.0393 H         1 UNK         0.0771 
    128 H128       34.8542   26.5878    2.6144 H         1 UNK         0.0771 
    129 H129       35.2731   25.7854    4.1203 H         1 UNK         0.0771 
    130 H130       34.3146   29.5621    5.5356 H         1 UNK         0.2980 
    131 H131       35.0523   28.5021    8.1823 H         1 UNK         0.0545 
    132 H132       36.6496   30.6666    6.1098 H         1 UNK         0.3459 
    133 H133       37.3446   31.6619    7.3646 H         1 UNK         0.3459 
    134 H134       33.0329   30.6633    7.4073 H         1 UNK         0.0616 
    135 H135       33.3226   30.0923    9.0290 H         1 UNK         0.0616 
    136 H136       31.0169   29.9092    6.2589 H         1 UNK         0.0634 
    137 H137       32.1184   28.8468    5.4056 H         1 UNK         0.0634 
@<TRIPOS>BOND
     1    1    2 1    
     2    1   72 1    
     3    1   73 1    
     4    1   74 1    
     5    2    3 2    
     6    2    4 am   BACKBONE|DICT|INTERRES
     7    4    5 1    
     8    4   75 1    
     9    5    6 1    
    10    5   35 1    
    11    5   76 1    
    12    6    7 1    
    13    6   77 1    
    14    6   78 1    
    15    7    8 1    
    16    8    9 1    
    17    8   79 1    
    18    8   80 1    
    19    9   10 ar   
    20    9   14 ar   
    21   10   11 ar   
    22   10   81 1    
    23   11   12 ar   
    24   11   71 1    
    25   12   13 ar   
    26   12   82 1    
    27   13   14 ar   
    28   13   15 1    
    29   14   83 1    
    30   15   16 1    
    31   15   84 1    
    32   15   85 1    
    33   16   17 1    
    34   17   18 1    
    35   17   86 1    
    36   17   87 1    
    37   18   19 1    
    38   18   37 1    
    39   18   88 1    
    40   19   20 am   BACKBONE|DICT|INTERRES
    41   19   89 1    
    42   20   21 2    
    43   20   22 1    
    44   22   23 1    
    45   22   24 1    
    46   22   90 1    
    47   23   91 1    
    48   23   92 1    
    49   23   93 1    
    50   24   25 am   BACKBONE|DICT|INTERRES
    51   24   94 1    
    52   25   26 2    
    53   25   27 1    
    54   27   28 1    
    55   27   29 1    
    56   27   95 1    
    57   28   96 1    
    58   28   97 1    
    59   28   98 1    
    60   29   30 am   BACKBONE|DICT|INTERRES
    61   29   99 1    
    62   30   31 2    
    63   30   32 1    
    64   32   33 1    
    65   32   34 1    
    66   32  100 1    
    67   33  101 1    
    68   33  102 1    
    69   33  103 1    
    70   34   35 am   BACKBONE|DICT|INTERRES
    71   34  104 1    
    72   35   36 2    
    73   37   38 2    
    74   37   39 am   BACKBONE|DICT|INTERRES
    75   39   40 1    
    76   39  105 1    
    77   40   41 1    
    78   40   42 1    
    79   40  106 1    
    80   41  107 1    
    81   41  108 1    
    82   41  109 1    
    83   42   43 2    
    84   42   44 am   BACKBONE|DICT|INTERRES
    85   44   45 1    
    86   44  110 1    
    87   45   46 1    
    88   45   47 1    
    89   45  111 1    
    90   46  112 1    
    91   46  113 1    
    92   46  114 1    
    93   47   48 2    
    94   47   49 am   BACKBONE|DICT|INTERRES
    95   49   50 1    
    96   49  115 1    
    97   50   51 1    
    98   50   52 1    
    99   50  116 1    
   100   51  117 1    
   101   51  118 1    
   102   51  119 1    
   103   52   53 2    
   104   52   54 am   BACKBONE|DICT|INTERRES
   105   54   55 1    
   106   54  120 1    
   107   55   56 1    
   108   55   57 1    
   109   55  121 1    
   110   56  122 1    
   111   56  123 1    
   112   56  124 1    
   113   57   58 2    
   114   57   59 am   BACKBONE|DICT|INTERRES
   115   59   60 1    
   116   59  125 1    
   117   60   61 1    
   118   60   62 1    
   119   60  126 1    
   120   61  127 1    
   121   61  128 1    
   122   61  129 1    
   123   62   63 2    
   124   62   64 am   BACKBONE|DICT|INTERRES
   125   64   65 1    
   126   64  130 1    
   127   65   66 1    
   128   65   69 1    
   129   65  131 1    
   130   66   67 am   BACKBONE|DICT|INTERRES
   131   66   68 2    
   132   67  132 1    
   133   67  133 1    
   134   69   70 1    
   135   69  134 1    
   136   69  135 1    
   137   70   71 1    
   138   71  136 1    
   139   71  137 1    
@<TRIPOS>SUBSTRUCTURE
     1 UNK         1 GROUP             0       ****    0 ROOT    
