@<TRIPOS>MOLECULE
3R136
137   139    1
SMALL
USER_CHARGES


@<TRIPOS>ATOM
      1 CA         29.0281   18.6667    3.1607 C.3       0 UNK        -0.1979 
      2 C          28.3933   19.3836    1.9779 C.2       0 UNK         0.4864 
      3 O          27.6359   18.7694    1.2244 O.2       0 UNK        -0.5359 
      4 N          28.7019   20.6749    1.8063 N.am      1 UNK        -0.4318 
      5 CA         28.1415   21.5335    0.7588 C.3       1 UNK         0.0824 
      6 C6         28.9666   22.8286    0.5553 C.3       12 UNK        -0.0944 
      7 S7         30.7033   22.5419    0.0727 S.3       12 UNK        -0.2672 
      8 C8         31.6054   22.7120    1.6500 C.3       12 UNK         0.0333 
      9 C9         31.5697   24.1318    2.2004 C.ar      12 UNK        -0.0807 
     10 C10        32.5088   25.0788    1.7819 C.ar      12 UNK        -0.0894 
     11 C11        32.4982   26.3749    2.3108 C.ar      12 UNK        -0.0804 
     12 C12        31.5129   26.7312    3.2384 C.ar      12 UNK        -0.0824 
     13 C13        30.5495   25.7998    3.6382 C.ar      12 UNK        -0.0762 
     14 C14        30.6056   24.4954    3.1438 C.ar      12 UNK        -0.0782 
     15 C15        29.4241   26.2014    4.5790 C.3       12 UNK         0.0230 
     16 S16        28.2604   27.3652    3.7956 S.3       12 UNK        -0.2608 
     17 C17        27.7555   26.5096    2.2516 C.3       12 UNK        -0.0989 
     18 CA         28.5576   26.9137    0.9799 C.3       5 UNK         0.0716 
     19 N          28.0086   26.2925   -0.2315 N.am      5 UNK        -0.4135 
     20 C          28.6039   26.3300   -1.4373 C.2       4 UNK         0.5031 
     21 O          29.7386   26.7756   -1.6156 O.2       4 UNK        -0.5229 
     22 CA         27.8329   25.7960   -2.6640 C.3       4 UNK         0.0329 
     23 CB         28.4855   24.5163   -3.2160 C.3       4 UNK        -0.2001 
     24 N          26.4130   25.5403   -2.4191 N.am      4 UNK        -0.4303 
     25 C          25.4711   26.4775   -2.2403 C.2       3 UNK         0.5044 
     26 O          25.6761   27.6839   -2.3720 O.2       3 UNK        -0.5152 
     27 CA         24.0655   25.9930   -1.8242 C.3       3 UNK         0.0319 
     28 CB         23.0847   26.1155   -3.0019 C.3       3 UNK        -0.2001 
     29 N          24.0152   24.6189   -1.3031 N.am      3 UNK        -0.4354 
     30 C          24.6634   24.1674   -0.2189 C.2       2 UNK         0.4964 
     31 O          25.3977   24.8780    0.4704 O.2       2 UNK        -0.5047 
     32 CA         24.5321   22.6695    0.1157 C.3       2 UNK         0.0288 
     33 CB         23.5809   21.8902   -0.8176 C.3       2 UNK        -0.2113 
     34 N          25.8639   22.0676    0.0475 N.am      2 UNK        -0.4145 
     35 C          26.6851   21.9127    1.0932 C.2       1 UNK         0.5006 
     36 O          26.3586   22.1143    2.2667 O.2       1 UNK        -0.5103 
     37 C          28.6404   28.4456    0.7923 C.2       5 UNK         0.5055 
     38 O          27.6418   29.0703    0.4251 O.2       5 UNK        -0.5220 
     39 N          29.8224   29.0170    1.0580 N.am      6 UNK        -0.4450 
     40 CA         30.0595   30.4588    1.0573 C.3       6 UNK         0.0367 
     41 CB         31.5739   30.7299    1.0288 C.3       6 UNK        -0.1929 
     42 C          29.4176   31.0932    2.2990 C.2       6 UNK         0.5070 
     43 O          29.8043   30.7468    3.4164 O.2       6 UNK        -0.5237 
     44 N          28.4806   32.0278    2.0890 N.am      7 UNK        -0.4739 
     45 CA         27.7061   32.7036    3.1412 C.3       7 UNK         0.0276 
     46 CB         26.6408   33.5981    2.4870 C.3       7 UNK        -0.1927 
     47 C          28.5497   33.5167    4.1419 C.2       7 UNK         0.5013 
     48 O          28.1095   33.7289    5.2720 O.2       7 UNK        -0.5193 
     49 N          29.7520   33.9305    3.7201 N.am      8 UNK        -0.4253 
     50 CA         30.7638   34.5790    4.5564 C.3       8 UNK         0.0242 
     51 CB         31.7814   35.2806    3.6397 C.3       8 UNK        -0.2000 
     52 C          31.4870   33.6152    5.5205 C.2       8 UNK         0.4948 
     53 O          32.2293   34.0952    6.3779 O.2       8 UNK        -0.5275 
     54 N          31.2946   32.2942    5.3541 N.am      9 UNK        -0.4246 
     55 CA         31.9495   31.1991    6.0830 C.3       9 UNK         0.0261 
     56 CB         31.5506   31.1998    7.5740 C.3       9 UNK        -0.1959 
     57 C          33.4749   31.1690    5.8634 C.2       9 UNK         0.5033 
     58 O          34.2287   30.8481    6.7843 O.2       9 UNK        -0.5390 
     59 N          33.8999   31.4908    4.6317 N.am      10 UNK        -0.4215 
     60 CA         35.2984   31.6165    4.2014 C.3       10 UNK         0.0240 
     61 CB         35.3280   32.0800    2.7353 C.3       10 UNK        -0.1982 
     62 C          36.1499   30.3452    4.3783 C.2       10 UNK         0.4970 
     63 O          37.3667   30.4544    4.5347 O.2       10 UNK        -0.4916 
     64 N          35.4992   29.1765    4.3625 N.am      11 UNK        -0.4279 
     65 CA         36.1083   27.8699    4.6468 C.3       11 UNK         0.1003 
     66 C          36.3614   27.6002    6.1604 C.2       11 UNK         0.5709 
     67 N          35.8941   28.4319    7.0855 N.am      11 UNK        -0.7358 
     68 O          37.0107   26.6152    6.5040 O.2       11 UNK        -0.4999 
     69 C69        35.2979   26.7179    3.9984 C.3       12 UNK        -0.0954 
     70 S70        35.2474   26.8368    2.1771 S.3       12 UNK        -0.2268 
     71 C71        33.5399   27.3947    1.8680 C.3       12 UNK         0.0203 
     72 H72        29.6891   19.3215    3.7284 H         1 UNK         0.0888 
     73 H73        28.2550   18.2984    3.8346 H         1 UNK         0.0888 
     74 H74        29.6123   17.8148    2.8135 H         1 UNK         0.0888 
     75 H75        29.2998   21.1342    2.4754 H         1 UNK         0.3017 
     76 H76        28.1490   20.9702   -0.1774 H         1 UNK         0.0873 
     77 H77        28.5204   23.4287   -0.2373 H         1 UNK         0.0745 
     78 H78        28.9176   23.4574    1.4404 H         1 UNK         0.0745 
     79 H79        31.2049   22.0090    2.3808 H         1 UNK         0.0705 
     80 H80        32.6423   22.4133    1.4884 H         1 UNK         0.0705 
     81 H81        33.2603   24.8030    1.0545 H         1 UNK         0.1334 
     82 H82        31.4761   27.7363    3.6373 H         1 UNK         0.1417 
     83 H83        29.8777   23.7682    3.4760 H         1 UNK         0.1562 
     84 H84        29.8470   26.6685    5.4695 H         1 UNK         0.0748 
     85 H85        28.8703   25.3271    4.9248 H         1 UNK         0.0748 
     86 H86        26.6970   26.7289    2.0991 H         1 UNK         0.0940 
     87 H87        27.8088   25.4310    2.4043 H         1 UNK         0.0940 
     88 H88        29.5726   26.5283    1.0901 H         1 UNK         0.0703 
     89 H89        27.0688   25.9196   -0.1550 H         1 UNK         0.3081 
     90 H90        27.9050   26.5659   -3.4353 H         1 UNK         0.0719 
     91 H91        28.3968   23.6783   -2.5258 H         1 UNK         0.0809 
     92 H92        28.0320   24.2189   -4.1616 H         1 UNK         0.0809 
     93 H93        29.5491   24.6686   -3.4058 H         1 UNK         0.0809 
     94 H94        26.1376   24.5758   -2.3143 H         1 UNK         0.2990 
     95 H95        23.7258   26.6565   -1.0261 H         1 UNK         0.0690 
     96 H96        23.3581   25.4543   -3.8252 H         1 UNK         0.0788 
     97 H97        23.0685   27.1337   -3.3938 H         1 UNK         0.0788 
     98 H98        22.0660   25.8730   -2.6984 H         1 UNK         0.0788 
     99 H99        23.4429   23.9651   -1.8185 H         1 UNK         0.2993 
    100 H100       24.1364   22.6038    1.1317 H         1 UNK         0.0949 
    101 H101       23.5101   20.8462   -0.5108 H         1 UNK         0.0767 
    102 H102       22.5688   22.2961   -0.7824 H         1 UNK         0.0767 
    103 H103       23.9151   21.9013   -1.8560 H         1 UNK         0.0767 
    104 H104       26.2206   21.8787   -0.8782 H         1 UNK         0.3013 
    105 H105       30.5776   28.4329    1.3838 H         1 UNK         0.3121 
    106 H106       29.6160   30.8864    0.1554 H         1 UNK         0.0774 
    107 H107       31.7765   31.8006    0.9825 H         1 UNK         0.0815 
    108 H108       32.0733   30.3434    1.9174 H         1 UNK         0.0815 
    109 H109       32.0426   30.2752    0.1557 H         1 UNK         0.0815 
    110 H110       28.2238   32.2453    1.1360 H         1 UNK         0.2987 
    111 H111       27.1956   31.9279    3.7165 H         1 UNK         0.0949 
    112 H112       27.0906   34.3775    1.8706 H         1 UNK         0.0806 
    113 H113       25.9659   33.0177    1.8575 H         1 UNK         0.0806 
    114 H114       26.0284   34.0932    3.2423 H         1 UNK         0.0806 
    115 H115       30.0123   33.7208    2.7676 H         1 UNK         0.3010 
    116 H116       30.2709   35.3382    5.1676 H         1 UNK         0.0829 
    117 H117       31.2962   36.0142    2.9955 H         1 UNK         0.0813 
    118 H118       32.5320   35.8148    4.2242 H         1 UNK         0.0813 
    119 H119       32.3107   34.5706    3.0030 H         1 UNK         0.0813 
    120 H120       30.6534   31.9852    4.6270 H         1 UNK         0.3038 
    121 H121       31.5654   30.2763    5.6452 H         1 UNK         0.0769 
    122 H122       31.9580   32.0614    8.1036 H         1 UNK         0.0811 
    123 H123       31.9216   30.3062    8.0773 H         1 UNK         0.0811 
    124 H124       30.4674   31.2125    7.6942 H         1 UNK         0.0811 
    125 H125       33.1988   31.7423    3.9513 H         1 UNK         0.3204 
    126 H126       35.7550   32.3946    4.8165 H         1 UNK         0.0748 
    127 H127       36.3538   32.2133    2.3882 H         1 UNK         0.0771 
    128 H128       34.8520   31.3558    2.0726 H         1 UNK         0.0771 
    129 H129       34.8206   33.0368    2.6096 H         1 UNK         0.0771 
    130 H130       34.4993   29.1845    4.2441 H         1 UNK         0.2980 
    131 H131       37.0981   27.8637    4.1862 H         1 UNK         0.0545 
    132 H132       35.3609   29.2600    6.8384 H         1 UNK         0.3459 
    133 H133       36.0794   28.2340    8.0556 H         1 UNK         0.3459 
    134 H134       35.7477   25.7523    4.2366 H         1 UNK         0.0616 
    135 H135       34.2862   26.6853    4.4052 H         1 UNK         0.0616 
    136 H136       33.4195   27.5815    0.8001 H         1 UNK         0.0634 
    137 H137       33.3894   28.3517    2.3679 H         1 UNK         0.0634 
@<TRIPOS>BOND
     1    1    2 1    
     2    1   72 1    
     3    1   73 1    
     4    1   74 1    
     5    2    3 2    
     6    2    4 am   BACKBONE|DICT|INTERRES
     7    4    5 1    
     8    4   75 1    
     9    5    6 1    
    10    5   35 1    
    11    5   76 1    
    12    6    7 1    
    13    6   77 1    
    14    6   78 1    
    15    7    8 1    
    16    8    9 1    
    17    8   79 1    
    18    8   80 1    
    19    9   10 ar   
    20    9   14 ar   
    21   10   11 ar   
    22   10   81 1    
    23   11   12 ar   
    24   11   71 1    
    25   12   13 ar   
    26   12   82 1    
    27   13   14 ar   
    28   13   15 1    
    29   14   83 1    
    30   15   16 1    
    31   15   84 1    
    32   15   85 1    
    33   16   17 1    
    34   17   18 1    
    35   17   86 1    
    36   17   87 1    
    37   18   19 1    
    38   18   37 1    
    39   18   88 1    
    40   19   20 am   BACKBONE|DICT|INTERRES
    41   19   89 1    
    42   20   21 2    
    43   20   22 1    
    44   22   23 1    
    45   22   24 1    
    46   22   90 1    
    47   23   91 1    
    48   23   92 1    
    49   23   93 1    
    50   24   25 am   BACKBONE|DICT|INTERRES
    51   24   94 1    
    52   25   26 2    
    53   25   27 1    
    54   27   28 1    
    55   27   29 1    
    56   27   95 1    
    57   28   96 1    
    58   28   97 1    
    59   28   98 1    
    60   29   30 am   BACKBONE|DICT|INTERRES
    61   29   99 1    
    62   30   31 2    
    63   30   32 1    
    64   32   33 1    
    65   32   34 1    
    66   32  100 1    
    67   33  101 1    
    68   33  102 1    
    69   33  103 1    
    70   34   35 am   BACKBONE|DICT|INTERRES
    71   34  104 1    
    72   35   36 2    
    73   37   38 2    
    74   37   39 am   BACKBONE|DICT|INTERRES
    75   39   40 1    
    76   39  105 1    
    77   40   41 1    
    78   40   42 1    
    79   40  106 1    
    80   41  107 1    
    81   41  108 1    
    82   41  109 1    
    83   42   43 2    
    84   42   44 am   BACKBONE|DICT|INTERRES
    85   44   45 1    
    86   44  110 1    
    87   45   46 1    
    88   45   47 1    
    89   45  111 1    
    90   46  112 1    
    91   46  113 1    
    92   46  114 1    
    93   47   48 2    
    94   47   49 am   BACKBONE|DICT|INTERRES
    95   49   50 1    
    96   49  115 1    
    97   50   51 1    
    98   50   52 1    
    99   50  116 1    
   100   51  117 1    
   101   51  118 1    
   102   51  119 1    
   103   52   53 2    
   104   52   54 am   BACKBONE|DICT|INTERRES
   105   54   55 1    
   106   54  120 1    
   107   55   56 1    
   108   55   57 1    
   109   55  121 1    
   110   56  122 1    
   111   56  123 1    
   112   56  124 1    
   113   57   58 2    
   114   57   59 am   BACKBONE|DICT|INTERRES
   115   59   60 1    
   116   59  125 1    
   117   60   61 1    
   118   60   62 1    
   119   60  126 1    
   120   61  127 1    
   121   61  128 1    
   122   61  129 1    
   123   62   63 2    
   124   62   64 am   BACKBONE|DICT|INTERRES
   125   64   65 1    
   126   64  130 1    
   127   65   66 1    
   128   65   69 1    
   129   65  131 1    
   130   66   67 am   BACKBONE|DICT|INTERRES
   131   66   68 2    
   132   67  132 1    
   133   67  133 1    
   134   69   70 1    
   135   69  134 1    
   136   69  135 1    
   137   70   71 1    
   138   71  136 1    
   139   71  137 1    
@<TRIPOS>SUBSTRUCTURE
     1 UNK         1 GROUP             0       ****    0 ROOT    
