@<TRIPOS>MOLECULE
3R136
137   139    1
SMALL
USER_CHARGES


@<TRIPOS>ATOM
      1 CA         32.9449   22.8076   -4.1049 C.3       0 UNK        -0.1979 
      2 C          32.1936   23.5828   -3.0322 C.2       0 UNK         0.4864 
      3 O          32.7499   24.5149   -2.4509 O.2       0 UNK        -0.5359 
      4 N          30.9389   23.2032   -2.7702 N.am      1 UNK        -0.4318 
      5 CA         30.0268   23.8350   -1.8190 C.3       1 UNK         0.0824 
      6 C6         30.3929   23.5316   -0.3381 C.3       12 UNK        -0.0944 
      7 S7         29.8184   24.8386    0.7944 S.3       12 UNK        -0.2672 
      8 C8         30.2604   24.1064    2.3979 C.3       12 UNK         0.0333 
      9 C9         30.2096   25.1643    3.4860 C.ar      12 UNK        -0.0807 
     10 C10        31.3106   25.9997    3.6892 C.ar      12 UNK        -0.0894 
     11 C11        31.2586   27.0259    4.6349 C.ar      12 UNK        -0.0804 
     12 C12        30.0953   27.2075    5.3876 C.ar      12 UNK        -0.0824 
     13 C13        28.9911   26.3679    5.2056 C.ar      12 UNK        -0.0762 
     14 C14        29.0593   25.3371    4.2615 C.ar      12 UNK        -0.0782 
     15 C15        27.7237   26.5979    6.0221 C.3       12 UNK         0.0230 
     16 S16        26.2277   26.8346    5.0015 S.3       12 UNK        -0.2608 
     17 C17        26.7577   28.0759    3.7685 C.3       12 UNK        -0.0989 
     18 CA         26.7753   27.4640    2.3396 C.3       5 UNK         0.0716 
     19 N          25.4615   27.0104    1.8646 N.am      5 UNK        -0.4135 
     20 C          24.3616   27.7594    1.6815 C.2       4 UNK         0.5031 
     21 O          24.3002   28.9603    1.9483 O.2       4 UNK        -0.5229 
     22 CA         23.1147   27.0826    1.0695 C.3       4 UNK         0.0329 
     23 CB         22.7507   27.7398   -0.2738 C.3       4 UNK        -0.2001 
     24 N          23.2640   25.6423    0.8527 N.am      4 UNK        -0.4303 
     25 C          23.2454   24.7012    1.8063 C.2       3 UNK         0.5044 
     26 O          22.9751   24.9280    2.9855 O.2       3 UNK        -0.5152 
     27 CA         23.6289   23.2689    1.3797 C.3       3 UNK         0.0319 
     28 CB         22.3719   22.3923    1.2563 C.3       3 UNK        -0.2001 
     29 N          24.4006   23.1808    0.1297 N.am      3 UNK        -0.4354 
     30 C          25.5940   23.7500   -0.0912 C.2       2 UNK         0.4964 
     31 O          26.1779   24.4662    0.7276 O.2       2 UNK        -0.5047 
     32 CA         26.2039   23.5434   -1.4809 C.3       2 UNK         0.0288 
     33 CB         25.5002   24.4272   -2.5279 C.3       2 UNK        -0.2113 
     34 N          27.6187   23.8890   -1.4063 N.am      2 UNK        -0.4145 
     35 C          28.5923   23.4002   -2.1775 C.2       1 UNK         0.5006 
     36 O          28.3968   22.6266   -3.1213 O.2       1 UNK        -0.5103 
     37 C          27.4462   28.3574    1.2784 C.2       5 UNK         0.5055 
     38 O          27.9039   29.4625    1.5764 O.2       5 UNK        -0.5220 
     39 N          27.4646   27.8539    0.0365 N.am      6 UNK        -0.4450 
     40 CA         28.0159   28.5095   -1.1484 C.3       6 UNK         0.0367 
     41 CB         27.3311   27.9222   -2.3971 C.3       6 UNK        -0.1929 
     42 C          29.5502   28.3842   -1.2051 C.2       6 UNK         0.5070 
     43 O          30.0822   27.7224   -2.0978 O.2       6 UNK        -0.5237 
     44 N          30.2332   29.0191   -0.2490 N.am      7 UNK        -0.4739 
     45 CA         31.6883   29.0927   -0.1518 C.3       7 UNK         0.0276 
     46 CB         32.2004   27.9530    0.7430 C.3       7 UNK        -0.1927 
     47 C          32.0835   30.4609    0.4158 C.2       7 UNK         0.5013 
     48 O          31.3168   31.0499    1.1816 O.2       7 UNK        -0.5193 
     49 N          33.2755   30.9365    0.0353 N.am      8 UNK        -0.4253 
     50 CA         33.8187   32.2377    0.4417 C.3       8 UNK         0.0242 
     51 CB         34.6870   32.7871   -0.7039 C.3       8 UNK        -0.2000 
     52 C          34.6301   32.1880    1.7505 C.2       8 UNK         0.4948 
     53 O          34.9792   33.2484    2.2724 O.2       8 UNK        -0.5275 
     54 N          34.9517   30.9822    2.2403 N.am      9 UNK        -0.4246 
     55 CA         35.7406   30.7559    3.4533 C.3       9 UNK         0.0261 
     56 CB         36.1446   29.2738    3.5222 C.3       9 UNK        -0.1959 
     57 C          34.9861   31.1675    4.7286 C.2       9 UNK         0.5033 
     58 O          33.7692   30.9866    4.8120 O.2       9 UNK        -0.5390 
     59 N          35.7300   31.6682    5.7218 N.am      10 UNK        -0.4215 
     60 CA         35.2196   32.0584    7.0378 C.3       10 UNK         0.0240 
     61 CB         36.1240   33.1635    7.6168 C.3       10 UNK        -0.1982 
     62 C          35.1071   30.8347    7.9664 C.2       10 UNK         0.4970 
     63 O          35.8449   30.7362    8.9491 O.2       10 UNK        -0.4916 
     64 N          34.2120   29.9061    7.6115 N.am      11 UNK        -0.4279 
     65 CA         33.9263   28.6734    8.3621 C.3       11 UNK         0.1003 
     66 C          33.3386   28.9478    9.7742 C.2       11 UNK         0.5709 
     67 N          33.6601   28.1133   10.7535 N.am      11 UNK        -0.7358 
     68 O          32.5637   29.8812    9.9783 O.2       11 UNK        -0.4999 
     69 C69        32.9993   27.7172    7.5681 C.3       12 UNK        -0.0954 
     70 S70        33.6895   27.2582    5.9427 S.3       12 UNK        -0.2268 
     71 C71        32.4489   27.9561    4.8101 C.3       12 UNK         0.0203 
     72 H72        33.8441   22.3594   -3.6833 H         1 UNK         0.0888 
     73 H73        32.3373   22.0101   -4.5325 H         1 UNK         0.0888 
     74 H74        33.2430   23.4765   -4.9118 H         1 UNK         0.0888 
     75 H75        30.4981   22.4668   -3.3097 H         1 UNK         0.3017 
     76 H76        30.0839   24.9122   -1.9933 H         1 UNK         0.0873 
     77 H77        31.4757   23.4724   -0.2188 H         1 UNK         0.0745 
     78 H78        30.0054   22.5622   -0.0180 H         1 UNK         0.0745 
     79 H79        31.2630   23.6789    2.3453 H         1 UNK         0.0705 
     80 H80        29.5796   23.2841    2.6236 H         1 UNK         0.0705 
     81 H81        32.2015   25.8670    3.0904 H         1 UNK         0.1334 
     82 H82        30.0459   28.0115    6.1087 H         1 UNK         0.1417 
     83 H83        28.2022   24.6959    4.1047 H         1 UNK         0.1562 
     84 H84        27.8352   27.4683    6.6707 H         1 UNK         0.0748 
     85 H85        27.5679   25.7437    6.6821 H         1 UNK         0.0748 
     86 H86        27.7437   28.4584    4.0361 H         1 UNK         0.0940 
     87 H87        26.0892   28.9359    3.8223 H         1 UNK         0.0940 
     88 H88        27.3962   26.5682    2.3789 H         1 UNK         0.0703 
     89 H89        25.4314   26.0334    1.5903 H         1 UNK         0.3081 
     90 H90        22.2880   27.2418    1.7650 H         1 UNK         0.0719 
     91 H91        23.5486   27.6255   -1.0088 H         1 UNK         0.0809 
     92 H92        21.8412   27.3097   -0.6937 H         1 UNK         0.0809 
     93 H93        22.5719   28.8091   -0.1521 H         1 UNK         0.0809 
     94 H94        23.4780   25.3489   -0.0889 H         1 UNK         0.2990 
     95 H95        24.2542   22.8588    2.1756 H         1 UNK         0.0690 
     96 H96        22.6302   21.3515    1.0598 H         1 UNK         0.0788 
     97 H97        21.7180   22.7352    0.4534 H         1 UNK         0.0788 
     98 H98        21.7906   22.4096    2.1795 H         1 UNK         0.0788 
     99 H99        23.9873   22.6285   -0.6087 H         1 UNK         0.2993 
    100 H100       26.1027   22.4898   -1.7516 H         1 UNK         0.0949 
    101 H101       25.9709   24.3351   -3.5070 H         1 UNK         0.0767 
    102 H102       24.4550   24.1399   -2.6473 H         1 UNK         0.0767 
    103 H103       25.5184   25.4804   -2.2465 H         1 UNK         0.0767 
    104 H104       27.8715   24.4302   -0.5860 H         1 UNK         0.3013 
    105 H105       27.0924   26.9258   -0.0989 H         1 UNK         0.3121 
    106 H106       27.7748   29.5740   -1.1063 H         1 UNK         0.0774 
    107 H107       27.6810   28.4204   -3.3022 H         1 UNK         0.0815 
    108 H108       27.5414   26.8581   -2.5116 H         1 UNK         0.0815 
    109 H109       26.2494   28.0511   -2.3565 H         1 UNK         0.0815 
    110 H110       29.7231   29.5470    0.4545 H         1 UNK         0.2987 
    111 H111       32.1268   28.9953   -1.1478 H         1 UNK         0.0949 
    112 H112       33.2812   28.0040    0.8784 H         1 UNK         0.0806 
    113 H113       31.7387   27.9945    1.7289 H         1 UNK         0.0806 
    114 H114       31.9740   26.9788    0.3090 H         1 UNK         0.0806 
    115 H115       33.8437   30.3886   -0.5960 H         1 UNK         0.3010 
    116 H116       32.9948   32.9368    0.6028 H         1 UNK         0.0829 
    117 H117       34.1119   32.8888   -1.6245 H         1 UNK         0.0813 
    118 H118       35.0780   33.7760   -0.4597 H         1 UNK         0.0813 
    119 H119       35.5417   32.1416   -0.9101 H         1 UNK         0.0813 
    120 H120       34.5943   30.1655    1.7699 H         1 UNK         0.3038 
    121 H121       36.6488   31.3580    3.3771 H         1 UNK         0.0769 
    122 H122       36.7360   29.0683    4.4156 H         1 UNK         0.0811 
    123 H123       36.7500   28.9866    2.6622 H         1 UNK         0.0811 
    124 H124       35.2745   28.6181    3.5533 H         1 UNK         0.0811 
    125 H125       36.7289   31.7427    5.5901 H         1 UNK         0.3204 
    126 H126       34.2171   32.4780    6.9269 H         1 UNK         0.0748 
    127 H127       35.7635   33.4908    8.5931 H         1 UNK         0.0771 
    128 H128       37.1521   32.8225    7.7457 H         1 UNK         0.0771 
    129 H129       36.1406   34.0406    6.9695 H         1 UNK         0.0771 
    130 H130       33.6794   30.0553    6.7634 H         1 UNK         0.2980 
    131 H131       34.8839   28.1672    8.5003 H         1 UNK         0.0545 
    132 H132       33.2761   28.2663   11.6730 H         1 UNK         0.3459 
    133 H133       34.2837   27.3372   10.5943 H         1 UNK         0.3459 
    134 H134       32.8405   26.7919    8.1249 H         1 UNK         0.0616 
    135 H135       32.0132   28.1658    7.4424 H         1 UNK         0.0616 
    136 H136       32.9205   28.1340    3.8435 H         1 UNK         0.0634 
    137 H137       32.1219   28.9332    5.1675 H         1 UNK         0.0634 
@<TRIPOS>BOND
     1    1    2 1    
     2    1   72 1    
     3    1   73 1    
     4    1   74 1    
     5    2    3 2    
     6    2    4 am   BACKBONE|DICT|INTERRES
     7    4    5 1    
     8    4   75 1    
     9    5    6 1    
    10    5   35 1    
    11    5   76 1    
    12    6    7 1    
    13    6   77 1    
    14    6   78 1    
    15    7    8 1    
    16    8    9 1    
    17    8   79 1    
    18    8   80 1    
    19    9   10 ar   
    20    9   14 ar   
    21   10   11 ar   
    22   10   81 1    
    23   11   12 ar   
    24   11   71 1    
    25   12   13 ar   
    26   12   82 1    
    27   13   14 ar   
    28   13   15 1    
    29   14   83 1    
    30   15   16 1    
    31   15   84 1    
    32   15   85 1    
    33   16   17 1    
    34   17   18 1    
    35   17   86 1    
    36   17   87 1    
    37   18   19 1    
    38   18   37 1    
    39   18   88 1    
    40   19   20 am   BACKBONE|DICT|INTERRES
    41   19   89 1    
    42   20   21 2    
    43   20   22 1    
    44   22   23 1    
    45   22   24 1    
    46   22   90 1    
    47   23   91 1    
    48   23   92 1    
    49   23   93 1    
    50   24   25 am   BACKBONE|DICT|INTERRES
    51   24   94 1    
    52   25   26 2    
    53   25   27 1    
    54   27   28 1    
    55   27   29 1    
    56   27   95 1    
    57   28   96 1    
    58   28   97 1    
    59   28   98 1    
    60   29   30 am   BACKBONE|DICT|INTERRES
    61   29   99 1    
    62   30   31 2    
    63   30   32 1    
    64   32   33 1    
    65   32   34 1    
    66   32  100 1    
    67   33  101 1    
    68   33  102 1    
    69   33  103 1    
    70   34   35 am   BACKBONE|DICT|INTERRES
    71   34  104 1    
    72   35   36 2    
    73   37   38 2    
    74   37   39 am   BACKBONE|DICT|INTERRES
    75   39   40 1    
    76   39  105 1    
    77   40   41 1    
    78   40   42 1    
    79   40  106 1    
    80   41  107 1    
    81   41  108 1    
    82   41  109 1    
    83   42   43 2    
    84   42   44 am   BACKBONE|DICT|INTERRES
    85   44   45 1    
    86   44  110 1    
    87   45   46 1    
    88   45   47 1    
    89   45  111 1    
    90   46  112 1    
    91   46  113 1    
    92   46  114 1    
    93   47   48 2    
    94   47   49 am   BACKBONE|DICT|INTERRES
    95   49   50 1    
    96   49  115 1    
    97   50   51 1    
    98   50   52 1    
    99   50  116 1    
   100   51  117 1    
   101   51  118 1    
   102   51  119 1    
   103   52   53 2    
   104   52   54 am   BACKBONE|DICT|INTERRES
   105   54   55 1    
   106   54  120 1    
   107   55   56 1    
   108   55   57 1    
   109   55  121 1    
   110   56  122 1    
   111   56  123 1    
   112   56  124 1    
   113   57   58 2    
   114   57   59 am   BACKBONE|DICT|INTERRES
   115   59   60 1    
   116   59  125 1    
   117   60   61 1    
   118   60   62 1    
   119   60  126 1    
   120   61  127 1    
   121   61  128 1    
   122   61  129 1    
   123   62   63 2    
   124   62   64 am   BACKBONE|DICT|INTERRES
   125   64   65 1    
   126   64  130 1    
   127   65   66 1    
   128   65   69 1    
   129   65  131 1    
   130   66   67 am   BACKBONE|DICT|INTERRES
   131   66   68 2    
   132   67  132 1    
   133   67  133 1    
   134   69   70 1    
   135   69  134 1    
   136   69  135 1    
   137   70   71 1    
   138   71  136 1    
   139   71  137 1    
@<TRIPOS>SUBSTRUCTURE
     1 UNK         1 GROUP             0       ****    0 ROOT    
