@<TRIPOS>MOLECULE
3R136
137   139    1
SMALL
USER_CHARGES


@<TRIPOS>ATOM
      1 CA         26.3813   23.1890    2.2504 C.3       0 UNK        -0.1979 
      2 C          27.3560   22.7204    1.1810 C.2       0 UNK         0.4864 
      3 O          27.6275   21.5233    1.0858 O.2       0 UNK        -0.5359 
      4 N          27.8898   23.6526    0.3803 N.am      1 UNK        -0.4318 
      5 CA         28.8650   23.3717   -0.6862 C.3       1 UNK         0.0824 
      6 C6         29.7981   24.5794   -0.9674 C.3       12 UNK        -0.0944 
      7 S7         30.5174   25.3919    0.5045 S.3       12 UNK        -0.2672 
      8 C8         31.0995   24.0165    1.5508 C.3       12 UNK         0.0333 
      9 C9         31.2397   24.4825    2.9892 C.ar      12 UNK        -0.0807 
     10 C10        32.4984   24.6951    3.5547 C.ar      12 UNK        -0.0894 
     11 C11        32.6136   25.1691    4.8645 C.ar      12 UNK        -0.0804 
     12 C12        31.4564   25.4340    5.6057 C.ar      12 UNK        -0.0824 
     13 C13        30.1874   25.2184    5.0547 C.ar      12 UNK        -0.0762 
     14 C14        30.0930   24.7171    3.7516 C.ar      12 UNK        -0.0782 
     15 C15        28.9456   25.5198    5.8976 C.3       12 UNK         0.0230 
     16 S16        27.4337   25.9436    4.9540 S.3       12 UNK        -0.2608 
     17 C17        27.9418   27.4566    4.0693 C.3       12 UNK        -0.0989 
     18 CA         27.7098   27.3367    2.5399 C.3       5 UNK         0.0716 
     19 N          26.2867   27.3004    2.1982 N.am      5 UNK        -0.4135 
     20 C          25.7845   26.7803    1.0731 C.2       4 UNK         0.5031 
     21 O          26.4575   26.1421    0.2544 O.2       4 UNK        -0.5229 
     22 CA         24.2997   27.0701    0.8015 C.3       4 UNK         0.0329 
     23 CB         24.1286   28.5103    0.2888 C.3       4 UNK        -0.2001 
     24 N          23.7643   26.1530   -0.2030 N.am      4 UNK        -0.4303 
     25 C          23.2806   24.9320    0.0594 C.2       3 UNK         0.5044 
     26 O          23.1301   24.4752    1.1925 O.2       3 UNK        -0.5152 
     27 CA         22.9790   24.0548   -1.1593 C.3       3 UNK         0.0319 
     28 CB         21.8362   24.6211   -2.0226 C.3       3 UNK        -0.2001 
     29 N          24.2075   23.9207   -1.9375 N.am      3 UNK        -0.4354 
     30 C          24.5485   22.8603   -2.6804 C.2       2 UNK         0.4964 
     31 O          23.8065   21.9048   -2.9078 O.2       2 UNK        -0.5047 
     32 CA         25.9894   22.8463   -3.2040 C.3       2 UNK         0.0288 
     33 CB         26.1574   23.7600   -4.4317 C.3       2 UNK        -0.2113 
     34 N          26.8885   23.2543   -2.1262 N.am      2 UNK        -0.4145 
     35 C          28.1722   22.9083   -1.9850 C.2       1 UNK         0.5006 
     36 O          28.8027   22.2500   -2.8141 O.2       1 UNK        -0.5103 
     37 C          28.3702   28.4929    1.7657 C.2       5 UNK         0.5055 
     38 O          28.6045   29.5584    2.3345 O.2       5 UNK        -0.5220 
     39 N          28.6474   28.2748    0.4733 N.am      6 UNK        -0.4450 
     40 CA         29.3000   29.2381   -0.4226 C.3       6 UNK         0.0367 
     41 CB         29.3670   28.6435   -1.8381 C.3       6 UNK        -0.1929 
     42 C          30.7035   29.6708    0.0460 C.2       6 UNK         0.5070 
     43 O          31.1189   30.7958   -0.2308 O.2       6 UNK        -0.5237 
     44 N          31.3923   28.7823    0.7731 N.am      7 UNK        -0.4739 
     45 CA         32.7059   29.0132    1.3722 C.3       7 UNK         0.0276 
     46 CB         33.3898   27.6556    1.5875 C.3       7 UNK        -0.1927 
     47 C          32.6701   29.8128    2.6891 C.2       7 UNK         0.5013 
     48 O          33.7403   30.0513    3.2499 O.2       7 UNK        -0.5193 
     49 N          31.4866   30.2321    3.1728 N.am      8 UNK        -0.4253 
     50 CA         31.2935   30.9693    4.4345 C.3       8 UNK         0.0242 
     51 CB         29.8014   31.2580    4.6573 C.3       8 UNK        -0.2000 
     52 C          32.1118   32.2658    4.5816 C.2       8 UNK         0.4948 
     53 O          32.3909   32.6660    5.7114 O.2       8 UNK        -0.5275 
     54 N          32.5325   32.8679    3.4601 N.am      9 UNK        -0.4246 
     55 CA         33.4864   33.9808    3.4175 C.3       9 UNK         0.0261 
     56 CB         33.6218   34.4740    1.9678 C.3       9 UNK        -0.1959 
     57 C          34.8731   33.6340    4.0006 C.2       9 UNK         0.5033 
     58 O          35.5518   34.5352    4.4958 O.2       9 UNK        -0.5390 
     59 N          35.2601   32.3519    3.9435 N.am      10 UNK        -0.4215 
     60 CA         36.4710   31.8080    4.5568 C.3       10 UNK         0.0240 
     61 CB         37.2146   30.9373    3.5295 C.3       10 UNK        -0.1982 
     62 C          36.1318   30.9870    5.8108 C.2       10 UNK         0.4970 
     63 O          36.8260   31.1222    6.8191 O.2       10 UNK        -0.4916 
     64 N          35.0909   30.1466    5.7275 N.am      11 UNK        -0.4279 
     65 CA         34.6617   29.2356    6.8011 C.3       11 UNK         0.1003 
     66 C          33.9984   29.9249    8.0275 C.2       11 UNK         0.5709 
     67 N          33.4806   31.1419    7.9221 N.am      11 UNK        -0.7358 
     68 O          33.9640   29.3410    9.1081 O.2       11 UNK        -0.4999 
     69 C69        33.7702   28.0878    6.2579 C.3       12 UNK        -0.0954 
     70 S70        34.6602   27.0275    5.0709 S.3       12 UNK        -0.2268 
     71 C71        33.9926   25.3829    5.4725 C.3       12 UNK         0.0203 
     72 H72        26.4441   24.2632    2.4152 H         1 UNK         0.0888 
     73 H73        25.3595   22.9441    1.9626 H         1 UNK         0.0888 
     74 H74        26.5967   22.6968    3.1983 H         1 UNK         0.0888 
     75 H75        27.5876   24.6202    0.4619 H         1 UNK         0.3017 
     76 H76        29.4905   22.5324   -0.3771 H         1 UNK         0.0873 
     77 H77        30.6207   24.2723   -1.6159 H         1 UNK         0.0745 
     78 H78        29.2565   25.3518   -1.5171 H         1 UNK         0.0745 
     79 H79        30.4049   23.1790    1.5381 H         1 UNK         0.0705 
     80 H80        32.0472   23.6425    1.1609 H         1 UNK         0.0705 
     81 H81        33.3901   24.5083    2.9717 H         1 UNK         0.1334 
     82 H82        31.5455   25.8065    6.6170 H         1 UNK         0.1417 
     83 H83        29.1256   24.5260    3.3107 H         1 UNK         0.1562 
     84 H84        29.1553   26.3405    6.5857 H         1 UNK         0.0748 
     85 H85        28.7313   24.6473    6.5158 H         1 UNK         0.0748 
     86 H86        28.9956   27.6516    4.2796 H         1 UNK         0.0940 
     87 H87        27.3940   28.3055    4.4828 H         1 UNK         0.0940 
     88 H88        28.1814   26.4124    2.2023 H         1 UNK         0.0703 
     89 H89        25.6741   27.8185    2.8111 H         1 UNK         0.3081 
     90 H90        23.7422   26.9570    1.7341 H         1 UNK         0.0719 
     91 H91        24.6955   28.6845   -0.6270 H         1 UNK         0.0809 
     92 H92        23.0819   28.7350    0.0822 H         1 UNK         0.0809 
     93 H93        24.4721   29.2372    1.0260 H         1 UNK         0.0809 
     94 H94        23.8535   26.4480   -1.1639 H         1 UNK         0.2990 
     95 H95        22.6802   23.0717   -0.7881 H         1 UNK         0.0690 
     96 H96        21.5786   23.9363   -2.8307 H         1 UNK         0.0788 
     97 H97        22.0968   25.5799   -2.4718 H         1 UNK         0.0788 
     98 H98        20.9350   24.7710   -1.4266 H         1 UNK         0.0788 
     99 H99        24.8792   24.6661   -1.8209 H         1 UNK         0.2993 
    100 H100       26.2253   21.8191   -3.4920 H         1 UNK         0.0949 
    101 H101       27.1653   23.6898   -4.8413 H         1 UNK         0.0767 
    102 H102       25.4652   23.4768   -5.2258 H         1 UNK         0.0767 
    103 H103       25.9686   24.8063   -4.1887 H         1 UNK         0.0767 
    104 H104       26.4633   23.7416   -1.3512 H         1 UNK         0.3013 
    105 H105       28.3745   27.3868    0.0713 H         1 UNK         0.3121 
    106 H106       28.6755   30.1333   -0.4532 H         1 UNK         0.0774 
    107 H107       29.9834   27.7442   -1.8684 H         1 UNK         0.0815 
    108 H108       29.8001   29.3578   -2.5397 H         1 UNK         0.0815 
    109 H109       28.3752   28.3860   -2.2103 H         1 UNK         0.0815 
    110 H110       30.9778   27.8732    0.9316 H         1 UNK         0.2987 
    111 H111       33.3119   29.5886    0.6691 H         1 UNK         0.0949 
    112 H112       32.8496   27.0601    2.3215 H         1 UNK         0.0806 
    113 H113       33.4468   27.0818    0.6624 H         1 UNK         0.0806 
    114 H114       34.4091   27.7797    1.9560 H         1 UNK         0.0806 
    115 H115       30.6428   30.0007    2.6593 H         1 UNK         0.3010 
    116 H116       31.6216   30.3113    5.2396 H         1 UNK         0.0829 
    117 H117       29.2344   30.3353    4.7767 H         1 UNK         0.0813 
    118 H118       29.6430   31.8454    5.5631 H         1 UNK         0.0813 
    119 H119       29.3697   31.8161    3.8256 H         1 UNK         0.0813 
    120 H120       32.2460   32.4764    2.5742 H         1 UNK         0.3038 
    121 H121       33.0735   34.7926    4.0201 H         1 UNK         0.0769 
    122 H122       34.0079   33.6942    1.3100 H         1 UNK         0.0811 
    123 H123       34.3071   35.3208    1.9065 H         1 UNK         0.0811 
    124 H124       32.6630   34.8066    1.5695 H         1 UNK         0.0811 
    125 H125       34.6235   31.6679    3.5411 H         1 UNK         0.3204 
    126 H126       37.1398   32.6165    4.8594 H         1 UNK         0.0748 
    127 H127       38.1236   30.5154    3.9604 H         1 UNK         0.0771 
    128 H128       36.6010   30.1051    3.1811 H         1 UNK         0.0771 
    129 H129       37.5098   31.5217    2.6579 H         1 UNK         0.0771 
    130 H130       34.5899   30.0606    4.8467 H         1 UNK         0.2980 
    131 H131       35.5684   28.7714    7.1943 H         1 UNK         0.0545 
    132 H132       33.0673   31.5638    8.7377 H         1 UNK         0.3459 
    133 H133       33.4275   31.6276    7.0339 H         1 UNK         0.3459 
    134 H134       33.4167   27.4646    7.0810 H         1 UNK         0.0616 
    135 H135       32.8793   28.4796    5.7679 H         1 UNK         0.0616 
    136 H136       34.6804   24.6283    5.0880 H         1 UNK         0.0634 
    137 H137       33.9667   25.2408    6.5539 H         1 UNK         0.0634 
@<TRIPOS>BOND
     1    1    2 1    
     2    1   72 1    
     3    1   73 1    
     4    1   74 1    
     5    2    3 2    
     6    2    4 am   BACKBONE|DICT|INTERRES
     7    4    5 1    
     8    4   75 1    
     9    5    6 1    
    10    5   35 1    
    11    5   76 1    
    12    6    7 1    
    13    6   77 1    
    14    6   78 1    
    15    7    8 1    
    16    8    9 1    
    17    8   79 1    
    18    8   80 1    
    19    9   10 ar   
    20    9   14 ar   
    21   10   11 ar   
    22   10   81 1    
    23   11   12 ar   
    24   11   71 1    
    25   12   13 ar   
    26   12   82 1    
    27   13   14 ar   
    28   13   15 1    
    29   14   83 1    
    30   15   16 1    
    31   15   84 1    
    32   15   85 1    
    33   16   17 1    
    34   17   18 1    
    35   17   86 1    
    36   17   87 1    
    37   18   19 1    
    38   18   37 1    
    39   18   88 1    
    40   19   20 am   BACKBONE|DICT|INTERRES
    41   19   89 1    
    42   20   21 2    
    43   20   22 1    
    44   22   23 1    
    45   22   24 1    
    46   22   90 1    
    47   23   91 1    
    48   23   92 1    
    49   23   93 1    
    50   24   25 am   BACKBONE|DICT|INTERRES
    51   24   94 1    
    52   25   26 2    
    53   25   27 1    
    54   27   28 1    
    55   27   29 1    
    56   27   95 1    
    57   28   96 1    
    58   28   97 1    
    59   28   98 1    
    60   29   30 am   BACKBONE|DICT|INTERRES
    61   29   99 1    
    62   30   31 2    
    63   30   32 1    
    64   32   33 1    
    65   32   34 1    
    66   32  100 1    
    67   33  101 1    
    68   33  102 1    
    69   33  103 1    
    70   34   35 am   BACKBONE|DICT|INTERRES
    71   34  104 1    
    72   35   36 2    
    73   37   38 2    
    74   37   39 am   BACKBONE|DICT|INTERRES
    75   39   40 1    
    76   39  105 1    
    77   40   41 1    
    78   40   42 1    
    79   40  106 1    
    80   41  107 1    
    81   41  108 1    
    82   41  109 1    
    83   42   43 2    
    84   42   44 am   BACKBONE|DICT|INTERRES
    85   44   45 1    
    86   44  110 1    
    87   45   46 1    
    88   45   47 1    
    89   45  111 1    
    90   46  112 1    
    91   46  113 1    
    92   46  114 1    
    93   47   48 2    
    94   47   49 am   BACKBONE|DICT|INTERRES
    95   49   50 1    
    96   49  115 1    
    97   50   51 1    
    98   50   52 1    
    99   50  116 1    
   100   51  117 1    
   101   51  118 1    
   102   51  119 1    
   103   52   53 2    
   104   52   54 am   BACKBONE|DICT|INTERRES
   105   54   55 1    
   106   54  120 1    
   107   55   56 1    
   108   55   57 1    
   109   55  121 1    
   110   56  122 1    
   111   56  123 1    
   112   56  124 1    
   113   57   58 2    
   114   57   59 am   BACKBONE|DICT|INTERRES
   115   59   60 1    
   116   59  125 1    
   117   60   61 1    
   118   60   62 1    
   119   60  126 1    
   120   61  127 1    
   121   61  128 1    
   122   61  129 1    
   123   62   63 2    
   124   62   64 am   BACKBONE|DICT|INTERRES
   125   64   65 1    
   126   64  130 1    
   127   65   66 1    
   128   65   69 1    
   129   65  131 1    
   130   66   67 am   BACKBONE|DICT|INTERRES
   131   66   68 2    
   132   67  132 1    
   133   67  133 1    
   134   69   70 1    
   135   69  134 1    
   136   69  135 1    
   137   70   71 1    
   138   71  136 1    
   139   71  137 1    
@<TRIPOS>SUBSTRUCTURE
     1 UNK         1 GROUP             0       ****    0 ROOT    
