@<TRIPOS>MOLECULE
3R136
137   139    1
SMALL
USER_CHARGES


@<TRIPOS>ATOM
      1 CA         33.6636   27.9368   -2.6366 C.3       0 UNK        -0.1979 
      2 C          32.3254   28.3091   -2.0164 C.2       0 UNK         0.4864 
      3 O          31.8869   29.4523   -2.1477 O.2       0 UNK        -0.5359 
      4 N          31.6801   27.3558   -1.3327 N.am      1 UNK        -0.4318 
      5 CA         30.3688   27.5275   -0.7054 C.3       1 UNK         0.0824 
      6 C6         30.1319   26.5068    0.4418 C.3       12 UNK        -0.0944 
      7 S7         30.2291   24.7527   -0.0621 S.3       12 UNK        -0.2672 
      8 C8         31.7585   24.1938    0.7593 C.3       12 UNK         0.0333 
      9 C9         31.5550   23.9360    2.2467 C.ar      12 UNK        -0.0807 
     10 C10        32.2682   24.6682    3.2028 C.ar      12 UNK        -0.0894 
     11 C11        32.0923   24.4164    4.5674 C.ar      12 UNK        -0.0804 
     12 C12        31.1845   23.4332    4.9710 C.ar      12 UNK        -0.0824 
     13 C13        30.4605   22.6999    4.0276 C.ar      12 UNK        -0.0762 
     14 C14        30.6679   22.9395    2.6663 C.ar      12 UNK        -0.0782 
     15 C15        29.4470   21.6592    4.4858 C.3       12 UNK         0.0230 
     16 S16        27.7435   22.0631    3.9726 S.3       12 UNK        -0.2608 
     17 C17        27.5461   23.7849    4.5570 C.3       12 UNK        -0.0989 
     18 CA         27.6182   24.8055    3.3855 C.3       5 UNK         0.0716 
     19 N          26.6176   24.5423    2.3382 N.am      5 UNK        -0.4135 
     20 C          25.2893   24.6937    2.4402 C.2       4 UNK         0.5031 
     21 O          24.7323   25.1514    3.4397 O.2       4 UNK        -0.5229 
     22 CA         24.4341   24.2627    1.2290 C.3       4 UNK         0.0329 
     23 CB         23.0295   24.8953    1.2489 C.3       4 UNK        -0.2001 
     24 N          25.0492   24.5457   -0.0715 N.am      4 UNK        -0.4303 
     25 C          25.9985   23.8236   -0.6758 C.2       3 UNK         0.5044 
     26 O          26.5715   22.8772   -0.1371 O.2       3 UNK        -0.5152 
     27 CA         26.3815   24.2232   -2.1123 C.3       3 UNK         0.0319 
     28 CB         25.2650   23.8569   -3.1096 C.3       3 UNK        -0.2001 
     29 N          26.8029   25.6216   -2.2681 N.am      3 UNK        -0.4354 
     30 C          26.1084   26.7542   -2.0862 C.2       2 UNK         0.4964 
     31 O          24.9247   26.7851   -1.7444 O.2       2 UNK        -0.5047 
     32 CA         26.8896   28.0712   -2.2869 C.3       2 UNK         0.0288 
     33 CB         26.0412   29.3191   -1.9746 C.3       2 UNK        -0.2113 
     34 N          28.1107   28.1111   -1.4738 N.am      2 UNK        -0.4145 
     35 C          29.2510   27.4718   -1.7669 C.2       1 UNK         0.5006 
     36 O          29.4044   26.8074   -2.7965 O.2       1 UNK        -0.5103 
     37 C          27.6146   26.2773    3.8629 C.2       5 UNK         0.5055 
     38 O          27.7908   26.5487    5.0526 O.2       5 UNK        -0.5220 
     39 N          27.3847   27.2007    2.9186 N.am      6 UNK        -0.4450 
     40 CA         27.3314   28.6444    3.1433 C.3       6 UNK         0.0367 
     41 CB         26.7439   29.3215    1.8947 C.3       6 UNK        -0.1929 
     42 C          28.7061   29.2461    3.4801 C.2       6 UNK         0.5070 
     43 O          29.7432   28.7038    3.0901 O.2       6 UNK        -0.5237 
     44 N          28.6728   30.4072    4.1466 N.am      7 UNK        -0.4739 
     45 CA         29.8347   31.1540    4.6402 C.3       7 UNK         0.0276 
     46 CB         29.3455   32.3143    5.5215 C.3       7 UNK        -0.1927 
     47 C          30.8051   31.6728    3.5629 C.2       7 UNK         0.5013 
     48 O          31.9184   32.0586    3.9172 O.2       7 UNK        -0.5193 
     49 N          30.4030   31.6511    2.2833 N.am      8 UNK        -0.4253 
     50 CA         31.1911   32.0814    1.1193 C.3       8 UNK         0.0242 
     51 CB         30.3394   31.9255   -0.1511 C.3       8 UNK        -0.2000 
     52 C          32.5519   31.3725    0.9518 C.2       8 UNK         0.4948 
     53 O          33.4694   31.9642    0.3832 O.2       8 UNK        -0.5275 
     54 N          32.6814   30.1529    1.4941 N.am      9 UNK        -0.4246 
     55 CA         33.9361   29.3952    1.5795 C.3       9 UNK         0.0261 
     56 CB         33.5911   27.9056    1.7427 C.3       9 UNK        -0.1959 
     57 C          34.8676   29.8442    2.7273 C.2       9 UNK         0.5033 
     58 O          35.8733   29.1742    2.9643 O.2       9 UNK        -0.5390 
     59 N          34.4982   30.9103    3.4550 N.am      10 UNK        -0.4215 
     60 CA         35.0226   31.3299    4.7620 C.3       10 UNK         0.0240 
     61 CB         36.5402   31.6148    4.7300 C.3       10 UNK        -0.1982 
     62 C          34.5984   30.3594    5.8836 C.2       10 UNK         0.4970 
     63 O          35.3122   30.2139    6.8769 O.2       10 UNK        -0.4916 
     64 N          33.4312   29.7242    5.7026 N.am      11 UNK        -0.4279 
     65 CA         32.8004   28.8019    6.6574 C.3       11 UNK         0.1003 
     66 C          32.0833   29.5098    7.8477 C.2       11 UNK         0.5709 
     67 N          31.9182   30.8283    7.8364 N.am      11 UNK        -0.7358 
     68 O          31.6823   28.8567    8.8074 O.2       11 UNK        -0.4999 
     69 C69        31.8730   27.7899    5.9215 C.3       12 UNK        -0.0954 
     70 S70        31.8624   26.1554    6.7287 S.3       12 UNK        -0.2268 
     71 C71        32.9089   25.1641    5.6140 C.3       12 UNK         0.0203 
     72 H72        33.9366   26.9026   -2.4274 H         1 UNK         0.0888 
     73 H73        33.6247   28.0662   -3.7178 H         1 UNK         0.0888 
     74 H74        34.4496   28.5810   -2.2431 H         1 UNK         0.0888 
     75 H75        32.0446   26.4146   -1.3168 H         1 UNK         0.3017 
     76 H76        30.3459   28.5228   -0.2575 H         1 UNK         0.0873 
     77 H77        29.1516   26.6678    0.8882 H         1 UNK         0.0745 
     78 H78        30.8384   26.6894    1.2522 H         1 UNK         0.0745 
     79 H79        32.0885   23.2677    0.2867 H         1 UNK         0.0705 
     80 H80        32.5522   24.9228    0.5894 H         1 UNK         0.0705 
     81 H81        32.9771   25.4179    2.8852 H         1 UNK         0.1334 
     82 H82        31.0419   23.2440    6.0264 H         1 UNK         0.1417 
     83 H83        30.1124   22.3714    1.9320 H         1 UNK         0.1562 
     84 H84        29.4672   21.5485    5.5712 H         1 UNK         0.0748 
     85 H85        29.7203   20.6870    4.0737 H         1 UNK         0.0748 
     86 H86        28.3093   23.9973    5.3078 H         1 UNK         0.0940 
     87 H87        26.5894   23.8667    5.0755 H         1 UNK         0.0940 
     88 H88        28.5856   24.6823    2.8996 H         1 UNK         0.0703 
     89 H89        26.9628   24.0890    1.4993 H         1 UNK         0.3081 
     90 H90        24.3076   23.1813    1.3144 H         1 UNK         0.0719 
     91 H91        22.4909   24.6355    2.1612 H         1 UNK         0.0809 
     92 H92        23.0795   25.9837    1.1957 H         1 UNK         0.0809 
     93 H93        22.4249   24.5462    0.4116 H         1 UNK         0.0809 
     94 H94        24.7020   25.3570   -0.5789 H         1 UNK         0.2990 
     95 H95        27.2573   23.6272   -2.3746 H         1 UNK         0.0690 
     96 H96        25.5758   24.0465   -4.1370 H         1 UNK         0.0788 
     97 H97        24.3493   24.4204   -2.9286 H         1 UNK         0.0788 
     98 H98        25.0123   22.7981   -3.0385 H         1 UNK         0.0788 
     99 H99        27.7786   25.7431   -2.5270 H         1 UNK         0.2993 
    100 H100       27.1680   28.1178   -3.3423 H         1 UNK         0.0949 
    101 H101       26.6046   30.2365   -2.1466 H         1 UNK         0.0767 
    102 H102       25.1589   29.3596   -2.6149 H         1 UNK         0.0767 
    103 H103       25.6921   29.3264   -0.9418 H         1 UNK         0.0767 
    104 H104       28.0500   28.6275   -0.6107 H         1 UNK         0.3013 
    105 H105       27.2331   26.8806    1.9756 H         1 UNK         0.3121 
    106 H106       26.6601   28.8225    3.9864 H         1 UNK         0.0774 
    107 H107       27.4077   29.2283    1.0369 H         1 UNK         0.0815 
    108 H108       25.7777   28.8933    1.6260 H         1 UNK         0.0815 
    109 H109       26.5836   30.3870    2.0646 H         1 UNK         0.0815 
    110 H110       27.7697   30.7892    4.3910 H         1 UNK         0.2987 
    111 H111       30.4081   30.4734    5.2705 H         1 UNK         0.0949 
    112 H112       28.7590   31.9519    6.3661 H         1 UNK         0.0806 
    113 H113       30.1847   32.8762    5.9347 H         1 UNK         0.0806 
    114 H114       28.7295   33.0170    4.9590 H         1 UNK         0.0806 
    115 H115       29.4715   31.3104    2.0989 H         1 UNK         0.3010 
    116 H116       31.4056   33.1435    1.2553 H         1 UNK         0.0829 
    117 H117       30.0400   30.8906   -0.3142 H         1 UNK         0.0813 
    118 H118       30.8952   32.2422   -1.0352 H         1 UNK         0.0813 
    119 H119       29.4366   32.5346   -0.1035 H         1 UNK         0.0813 
    120 H120       31.8709   29.7428    1.9395 H         1 UNK         0.3038 
    121 H121       34.4896   29.5202    0.6464 H         1 UNK         0.0769 
    122 H122       33.0365   27.5312    0.8885 H         1 UNK         0.0811 
    123 H123       32.9907   27.7328    2.6354 H         1 UNK         0.0811 
    124 H124       34.4888   27.2911    1.8242 H         1 UNK         0.0811 
    125 H125       33.6445   31.3906    3.1862 H         1 UNK         0.3204 
    126 H126       34.5254   32.2746    4.9868 H         1 UNK         0.0748 
    127 H127       37.1275   30.7010    4.6383 H         1 UNK         0.0771 
    128 H128       36.8040   32.2701    3.9000 H         1 UNK         0.0771 
    129 H129       36.8605   32.1096    5.6477 H         1 UNK         0.0771 
    130 H130       32.9016   29.9376    4.8722 H         1 UNK         0.2980 
    131 H131       33.6173   28.2345    7.1079 H         1 UNK         0.0545 
    132 H132       32.2652   31.3855    7.0734 H         1 UNK         0.3459 
    133 H133       31.4626   31.2706    8.6188 H         1 UNK         0.3459 
    134 H134       32.1883   27.6517    4.8869 H         1 UNK         0.0616 
    135 H135       30.8465   28.1559    5.8609 H         1 UNK         0.0616 
    136 H136       33.6666   25.7982    5.1506 H         1 UNK         0.0634 
    137 H137       33.4532   24.4337    6.2141 H         1 UNK         0.0634 
@<TRIPOS>BOND
     1    1    2 1    
     2    1   72 1    
     3    1   73 1    
     4    1   74 1    
     5    2    3 2    
     6    2    4 am   BACKBONE|DICT|INTERRES
     7    4    5 1    
     8    4   75 1    
     9    5    6 1    
    10    5   35 1    
    11    5   76 1    
    12    6    7 1    
    13    6   77 1    
    14    6   78 1    
    15    7    8 1    
    16    8    9 1    
    17    8   79 1    
    18    8   80 1    
    19    9   10 ar   
    20    9   14 ar   
    21   10   11 ar   
    22   10   81 1    
    23   11   12 ar   
    24   11   71 1    
    25   12   13 ar   
    26   12   82 1    
    27   13   14 ar   
    28   13   15 1    
    29   14   83 1    
    30   15   16 1    
    31   15   84 1    
    32   15   85 1    
    33   16   17 1    
    34   17   18 1    
    35   17   86 1    
    36   17   87 1    
    37   18   19 1    
    38   18   37 1    
    39   18   88 1    
    40   19   20 am   BACKBONE|DICT|INTERRES
    41   19   89 1    
    42   20   21 2    
    43   20   22 1    
    44   22   23 1    
    45   22   24 1    
    46   22   90 1    
    47   23   91 1    
    48   23   92 1    
    49   23   93 1    
    50   24   25 am   BACKBONE|DICT|INTERRES
    51   24   94 1    
    52   25   26 2    
    53   25   27 1    
    54   27   28 1    
    55   27   29 1    
    56   27   95 1    
    57   28   96 1    
    58   28   97 1    
    59   28   98 1    
    60   29   30 am   BACKBONE|DICT|INTERRES
    61   29   99 1    
    62   30   31 2    
    63   30   32 1    
    64   32   33 1    
    65   32   34 1    
    66   32  100 1    
    67   33  101 1    
    68   33  102 1    
    69   33  103 1    
    70   34   35 am   BACKBONE|DICT|INTERRES
    71   34  104 1    
    72   35   36 2    
    73   37   38 2    
    74   37   39 am   BACKBONE|DICT|INTERRES
    75   39   40 1    
    76   39  105 1    
    77   40   41 1    
    78   40   42 1    
    79   40  106 1    
    80   41  107 1    
    81   41  108 1    
    82   41  109 1    
    83   42   43 2    
    84   42   44 am   BACKBONE|DICT|INTERRES
    85   44   45 1    
    86   44  110 1    
    87   45   46 1    
    88   45   47 1    
    89   45  111 1    
    90   46  112 1    
    91   46  113 1    
    92   46  114 1    
    93   47   48 2    
    94   47   49 am   BACKBONE|DICT|INTERRES
    95   49   50 1    
    96   49  115 1    
    97   50   51 1    
    98   50   52 1    
    99   50  116 1    
   100   51  117 1    
   101   51  118 1    
   102   51  119 1    
   103   52   53 2    
   104   52   54 am   BACKBONE|DICT|INTERRES
   105   54   55 1    
   106   54  120 1    
   107   55   56 1    
   108   55   57 1    
   109   55  121 1    
   110   56  122 1    
   111   56  123 1    
   112   56  124 1    
   113   57   58 2    
   114   57   59 am   BACKBONE|DICT|INTERRES
   115   59   60 1    
   116   59  125 1    
   117   60   61 1    
   118   60   62 1    
   119   60  126 1    
   120   61  127 1    
   121   61  128 1    
   122   61  129 1    
   123   62   63 2    
   124   62   64 am   BACKBONE|DICT|INTERRES
   125   64   65 1    
   126   64  130 1    
   127   65   66 1    
   128   65   69 1    
   129   65  131 1    
   130   66   67 am   BACKBONE|DICT|INTERRES
   131   66   68 2    
   132   67  132 1    
   133   67  133 1    
   134   69   70 1    
   135   69  134 1    
   136   69  135 1    
   137   70   71 1    
   138   71  136 1    
   139   71  137 1    
@<TRIPOS>SUBSTRUCTURE
     1 UNK         1 GROUP             0       ****    0 ROOT    
