@<TRIPOS>MOLECULE
3R136
137   139    1
SMALL
USER_CHARGES


@<TRIPOS>ATOM
      1 CA         27.6258   19.2662    4.5239 C.3       0 UNK        -0.1979 
      2 C          27.3424   19.8279    3.1383 C.2       0 UNK         0.4864 
      3 O          26.3850   19.4015    2.4897 O.2       0 UNK        -0.5359 
      4 N          28.1720   20.7729    2.6786 N.am      1 UNK        -0.4318 
      5 CA         28.0234   21.4624    1.3921 C.3       1 UNK         0.0824 
      6 C6         29.3385   22.1462    0.9481 C.3       12 UNK        -0.0944 
      7 S7         30.6699   20.9358    0.6589 S.3       12 UNK        -0.2672 
      8 C8         31.9949   21.5972    1.7262 C.3       12 UNK         0.0333 
      9 C9         32.5128   22.9782    1.3203 C.ar      12 UNK        -0.0807 
     10 C10        33.0218   23.8287    2.3063 C.ar      12 UNK        -0.0894 
     11 C11        33.5509   25.0784    1.9709 C.ar      12 UNK        -0.0804 
     12 C12        33.5556   25.4880    0.6340 C.ar      12 UNK        -0.0824 
     13 C13        33.0443   24.6525   -0.3653 C.ar      12 UNK        -0.0762 
     14 C14        32.5346   23.3987   -0.0157 C.ar      12 UNK        -0.0782 
     15 C15        33.0889   25.0668   -1.8318 C.3       12 UNK         0.0230 
     16 S16        32.2778   26.6633   -2.1628 S.3       12 UNK        -0.2608 
     17 C17        30.5191   26.3066   -1.8227 C.3       12 UNK        -0.0989 
     18 CA         29.8006   27.5580   -1.2553 C.3       5 UNK         0.0716 
     19 N          28.3702   27.5847   -1.5756 N.am      5 UNK        -0.4135 
     20 C          27.7716   28.5419   -2.3022 C.2       4 UNK         0.5031 
     21 O          28.3741   29.4412   -2.8902 O.2       4 UNK        -0.5229 
     22 CA         26.2321   28.5153   -2.3839 C.3       4 UNK         0.0329 
     23 CB         25.7736   27.7475   -3.6343 C.3       4 UNK        -0.2001 
     24 N          25.5964   27.9315   -1.2020 N.am      4 UNK        -0.4303 
     25 C          25.6828   28.4154    0.0457 C.2       3 UNK         0.5044 
     26 O          26.1859   29.5033    0.3205 O.2       3 UNK        -0.5152 
     27 CA         25.1521   27.5266    1.1878 C.3       3 UNK         0.0319 
     28 CB         23.8624   28.1210    1.7763 C.3       3 UNK        -0.2001 
     29 N          24.9107   26.1221    0.8275 N.am      3 UNK        -0.4354 
     30 C          25.8238   25.2546    0.3687 C.2       2 UNK         0.4964 
     31 O          26.9968   25.5526    0.1182 O.2       2 UNK        -0.5047 
     32 CA         25.3099   23.8395    0.0624 C.3       2 UNK         0.0288 
     33 CB         24.8002   23.7665   -1.3866 C.3       2 UNK        -0.2113 
     34 N          26.3483   22.8273    0.2525 N.am      2 UNK        -0.4145 
     35 C          26.8747   22.4895    1.4373 C.2       1 UNK         0.5006 
     36 O          26.5065   22.9678    2.5145 O.2       1 UNK        -0.5103 
     37 C          30.0131   27.7162    0.2609 C.2       5 UNK         0.5055 
     38 O          30.8859   28.4857    0.6658 O.2       5 UNK        -0.5220 
     39 N          29.1869   27.0488    1.0826 N.am      6 UNK        -0.4450 
     40 CA         29.2279   27.0988    2.5484 C.3       6 UNK         0.0367 
     41 CB         28.5695   25.8290    3.1171 C.3       6 UNK        -0.1929 
     42 C          28.6210   28.3929    3.1299 C.2       6 UNK         0.5070 
     43 O          27.8335   28.3398    4.0765 O.2       6 UNK        -0.5237 
     44 N          28.9914   29.5444    2.5607 N.am      7 UNK        -0.4739 
     45 CA         28.4967   30.8751    2.9122 C.3       7 UNK         0.0276 
     46 CB         28.6062   31.7892    1.6772 C.3       7 UNK        -0.1927 
     47 C          29.2171   31.4471    4.1473 C.2       7 UNK         0.5013 
     48 O          29.8356   32.5100    4.0577 O.2       7 UNK        -0.5193 
     49 N          29.1276   30.7205    5.2721 N.am      8 UNK        -0.4253 
     50 CA         29.6171   31.0568    6.6162 C.3       8 UNK         0.0242 
     51 CB         28.6537   32.0619    7.2856 C.3       8 UNK        -0.2000 
     52 C          31.0866   31.5202    6.6270 C.2       8 UNK         0.4948 
     53 O          31.9881   30.6818    6.5721 O.2       8 UNK        -0.5275 
     54 N          31.3002   32.8439    6.6515 N.am      9 UNK        -0.4246 
     55 CA         32.6000   33.5199    6.5964 C.3       9 UNK         0.0261 
     56 CB         32.3815   35.0348    6.7409 C.3       9 UNK        -0.1959 
     57 C          33.4369   33.2140    5.3385 C.2       9 UNK         0.5033 
     58 O          34.6510   33.4190    5.3742 O.2       9 UNK        -0.5390 
     59 N          32.8031   32.7096    4.2676 N.am      10 UNK        -0.4215 
     60 CA         33.4830   32.1624    3.0889 C.3       10 UNK         0.0240 
     61 CB         32.4503   31.8421    1.9984 C.3       10 UNK        -0.1982 
     62 C          34.3301   30.9141    3.4037 C.2       10 UNK         0.4970 
     63 O          35.3647   30.7214    2.7635 O.2       10 UNK        -0.4916 
     64 N          33.8925   30.1110    4.3823 N.am      11 UNK        -0.4279 
     65 CA         34.6464   28.9763    4.9311 C.3       11 UNK         0.1003 
     66 C          35.3979   29.3771    6.2266 C.2       11 UNK         0.5709 
     67 N          34.7817   30.1408    7.1217 N.am      11 UNK        -0.7358 
     68 O          36.5497   28.9953    6.4189 O.2       11 UNK        -0.4999 
     69 C69        33.7433   27.7457    5.1939 C.3       12 UNK        -0.0954 
     70 S70        32.9123   27.1392    3.6915 S.3       12 UNK        -0.2268 
     71 C71        34.1433   25.9666    3.0544 C.3       12 UNK         0.0203 
     72 H72        27.7888   18.1903    4.4667 H         1 UNK         0.0888 
     73 H73        28.5087   19.7190    4.9748 H         1 UNK         0.0888 
     74 H74        26.7774   19.4485    5.1829 H         1 UNK         0.0888 
     75 H75        28.9284   21.0972    3.2624 H         1 UNK         0.3017 
     76 H76        27.7598   20.7129    0.6420 H         1 UNK         0.0873 
     77 H77        29.6571   22.8806    1.6895 H         1 UNK         0.0745 
     78 H78        29.1990   22.7000    0.0174 H         1 UNK         0.0745 
     79 H79        32.8320   20.8983    1.7100 H         1 UNK         0.0705 
     80 H80        31.6299   21.6177    2.7544 H         1 UNK         0.0705 
     81 H81        33.0231   23.5108    3.3403 H         1 UNK         0.1334 
     82 H82        33.9630   26.4545    0.3696 H         1 UNK         0.1417 
     83 H83        32.1665   22.7431   -0.7925 H         1 UNK         0.1562 
     84 H84        32.6342   24.3069   -2.4695 H         1 UNK         0.0748 
     85 H85        34.1329   25.1377   -2.1397 H         1 UNK         0.0748 
     86 H86        30.4159   25.4451   -1.1595 H         1 UNK         0.0940 
     87 H87        30.0664   26.0103   -2.7704 H         1 UNK         0.0940 
     88 H88        30.2670   28.4370   -1.7058 H         1 UNK         0.0703 
     89 H89        27.7912   26.8843   -1.1244 H         1 UNK         0.3081 
     90 H90        25.8894   29.5488   -2.4682 H         1 UNK         0.0719 
     91 H91        26.2127   28.1753   -4.5368 H         1 UNK         0.0809 
     92 H92        26.0673   26.6976   -3.5954 H         1 UNK         0.0809 
     93 H93        24.6907   27.7903   -3.7524 H         1 UNK         0.0809 
     94 H94        25.1431   27.0387   -1.3267 H         1 UNK         0.2990 
     95 H95        25.9139   27.5331    1.9693 H         1 UNK         0.0690 
     96 H96        24.0161   29.1545    2.0909 H         1 UNK         0.0788 
     97 H97        23.5330   27.5654    2.6545 H         1 UNK         0.0788 
     98 H98        23.0488   28.1190    1.0498 H         1 UNK         0.0788 
     99 H99        23.9671   25.7900    0.9698 H         1 UNK         0.2993 
    100 H100       24.4859   23.6085    0.7414 H         1 UNK         0.0949 
    101 H101       24.4068   22.7766   -1.6191 H         1 UNK         0.0767 
    102 H102       23.9925   24.4797   -1.5570 H         1 UNK         0.0767 
    103 H103       25.5903   23.9905   -2.1051 H         1 UNK         0.0767 
    104 H104       26.7290   22.4141   -0.5862 H         1 UNK         0.3013 
    105 H105       28.4597   26.4565    0.6880 H         1 UNK         0.3121 
    106 H106       30.2719   27.0825    2.8543 H         1 UNK         0.0774 
    107 H107       27.5046   25.7856    2.8884 H         1 UNK         0.0815 
    108 H108       29.0350   24.9288    2.7186 H         1 UNK         0.0815 
    109 H109       28.6707   25.7883    4.2023 H         1 UNK         0.0815 
    110 H110       29.6896   29.4896    1.8246 H         1 UNK         0.2987 
    111 H111       27.4372   30.7995    3.1677 H         1 UNK         0.0949 
    112 H112       28.2381   32.7921    1.8973 H         1 UNK         0.0806 
    113 H113       29.6340   31.8860    1.3306 H         1 UNK         0.0806 
    114 H114       28.0131   31.4050    0.8476 H         1 UNK         0.0806 
    115 H115       28.6382   29.8340    5.1908 H         1 UNK         0.3010 
    116 H116       29.5877   30.1342    7.1979 H         1 UNK         0.0829 
    117 H117       28.5322   32.9745    6.7007 H         1 UNK         0.0813 
    118 H118       27.6635   31.6239    7.4119 H         1 UNK         0.0813 
    119 H119       29.0042   32.3452    8.2793 H         1 UNK         0.0813 
    120 H120       30.4872   33.4427    6.6440 H         1 UNK         0.3038 
    121 H121       33.1801   33.1737    7.4543 H         1 UNK         0.0769 
    122 H122       31.7803   35.4346    5.9231 H         1 UNK         0.0811 
    123 H123       33.3326   35.5694    6.7376 H         1 UNK         0.0811 
    124 H124       31.8804   35.2774    7.6782 H         1 UNK         0.0811 
    125 H125       31.7898   32.6235    4.2973 H         1 UNK         0.3204 
    126 H126       34.1565   32.9324    2.7068 H         1 UNK         0.0748 
    127 H127       32.9385   31.4872    1.0897 H         1 UNK         0.0771 
    128 H128       31.7576   31.0625    2.3180 H         1 UNK         0.0771 
    129 H129       31.8701   32.7255    1.7318 H         1 UNK         0.0771 
    130 H130       33.0588   30.3664    4.8990 H         1 UNK         0.2980 
    131 H131       35.4061   28.6655    4.2114 H         1 UNK         0.0545 
    132 H132       35.2668   30.4073    7.9630 H         1 UNK         0.3459 
    133 H133       33.8101   30.4042    6.9863 H         1 UNK         0.3459 
    134 H134       32.9683   27.9938    5.9217 H         1 UNK         0.0616 
    135 H135       34.3188   26.9289    5.6334 H         1 UNK         0.0616 
    136 H136       34.9982   26.5205    2.6636 H         1 UNK         0.0634 
    137 H137       34.5210   25.3501    3.8714 H         1 UNK         0.0634 
@<TRIPOS>BOND
     1    1    2 1    
     2    1   72 1    
     3    1   73 1    
     4    1   74 1    
     5    2    3 2    
     6    2    4 am   BACKBONE|DICT|INTERRES
     7    4    5 1    
     8    4   75 1    
     9    5    6 1    
    10    5   35 1    
    11    5   76 1    
    12    6    7 1    
    13    6   77 1    
    14    6   78 1    
    15    7    8 1    
    16    8    9 1    
    17    8   79 1    
    18    8   80 1    
    19    9   10 ar   
    20    9   14 ar   
    21   10   11 ar   
    22   10   81 1    
    23   11   12 ar   
    24   11   71 1    
    25   12   13 ar   
    26   12   82 1    
    27   13   14 ar   
    28   13   15 1    
    29   14   83 1    
    30   15   16 1    
    31   15   84 1    
    32   15   85 1    
    33   16   17 1    
    34   17   18 1    
    35   17   86 1    
    36   17   87 1    
    37   18   19 1    
    38   18   37 1    
    39   18   88 1    
    40   19   20 am   BACKBONE|DICT|INTERRES
    41   19   89 1    
    42   20   21 2    
    43   20   22 1    
    44   22   23 1    
    45   22   24 1    
    46   22   90 1    
    47   23   91 1    
    48   23   92 1    
    49   23   93 1    
    50   24   25 am   BACKBONE|DICT|INTERRES
    51   24   94 1    
    52   25   26 2    
    53   25   27 1    
    54   27   28 1    
    55   27   29 1    
    56   27   95 1    
    57   28   96 1    
    58   28   97 1    
    59   28   98 1    
    60   29   30 am   BACKBONE|DICT|INTERRES
    61   29   99 1    
    62   30   31 2    
    63   30   32 1    
    64   32   33 1    
    65   32   34 1    
    66   32  100 1    
    67   33  101 1    
    68   33  102 1    
    69   33  103 1    
    70   34   35 am   BACKBONE|DICT|INTERRES
    71   34  104 1    
    72   35   36 2    
    73   37   38 2    
    74   37   39 am   BACKBONE|DICT|INTERRES
    75   39   40 1    
    76   39  105 1    
    77   40   41 1    
    78   40   42 1    
    79   40  106 1    
    80   41  107 1    
    81   41  108 1    
    82   41  109 1    
    83   42   43 2    
    84   42   44 am   BACKBONE|DICT|INTERRES
    85   44   45 1    
    86   44  110 1    
    87   45   46 1    
    88   45   47 1    
    89   45  111 1    
    90   46  112 1    
    91   46  113 1    
    92   46  114 1    
    93   47   48 2    
    94   47   49 am   BACKBONE|DICT|INTERRES
    95   49   50 1    
    96   49  115 1    
    97   50   51 1    
    98   50   52 1    
    99   50  116 1    
   100   51  117 1    
   101   51  118 1    
   102   51  119 1    
   103   52   53 2    
   104   52   54 am   BACKBONE|DICT|INTERRES
   105   54   55 1    
   106   54  120 1    
   107   55   56 1    
   108   55   57 1    
   109   55  121 1    
   110   56  122 1    
   111   56  123 1    
   112   56  124 1    
   113   57   58 2    
   114   57   59 am   BACKBONE|DICT|INTERRES
   115   59   60 1    
   116   59  125 1    
   117   60   61 1    
   118   60   62 1    
   119   60  126 1    
   120   61  127 1    
   121   61  128 1    
   122   61  129 1    
   123   62   63 2    
   124   62   64 am   BACKBONE|DICT|INTERRES
   125   64   65 1    
   126   64  130 1    
   127   65   66 1    
   128   65   69 1    
   129   65  131 1    
   130   66   67 am   BACKBONE|DICT|INTERRES
   131   66   68 2    
   132   67  132 1    
   133   67  133 1    
   134   69   70 1    
   135   69  134 1    
   136   69  135 1    
   137   70   71 1    
   138   71  136 1    
   139   71  137 1    
@<TRIPOS>SUBSTRUCTURE
     1 UNK         1 GROUP             0       ****    0 ROOT    
