@<TRIPOS>MOLECULE
3R136
137   139    1
SMALL
USER_CHARGES


@<TRIPOS>ATOM
      1 CA         26.0610   23.0299    4.8140 C.3       0 UNK        -0.1979 
      2 C          26.5352   23.2572    3.3872 C.2       0 UNK         0.4864 
      3 O          25.8910   23.9932    2.6391 O.2       0 UNK        -0.5359 
      4 N          27.6647   22.6453    3.0042 N.am      1 UNK        -0.4318 
      5 CA         28.2667   22.7537    1.6688 C.3       1 UNK         0.0824 
      6 C6         29.4367   21.7588    1.4695 C.3       12 UNK        -0.0944 
      7 S7         30.7987   21.9384    2.6785 S.3       12 UNK        -0.2672 
      8 C8         32.2590   22.0517    1.5959 C.3       12 UNK         0.0333 
      9 C9         32.5240   23.4717    1.1118 C.ar      12 UNK        -0.0807 
     10 C10        33.4168   24.2931    1.8072 C.ar      12 UNK        -0.0894 
     11 C11        33.7242   25.5732    1.3349 C.ar      12 UNK        -0.0804 
     12 C12        33.1132   26.0419    0.1675 C.ar      12 UNK        -0.0824 
     13 C13        32.2188   25.2298   -0.5372 C.ar      12 UNK        -0.0762 
     14 C14        31.9290   23.9473   -0.0605 C.ar      12 UNK        -0.0782 
     15 C15        31.5908   25.7177   -1.8338 C.3       12 UNK         0.0230 
     16 S16        30.2079   26.8496   -1.5116 S.3       12 UNK        -0.2608 
     17 C17        29.2026   26.6208   -3.0138 C.3       12 UNK        -0.0989 
     18 CA         27.7460   27.1363   -2.8892 C.3       5 UNK         0.0716 
     19 N          26.9728   26.4096   -1.8695 N.am      5 UNK        -0.4135 
     20 C          25.6514   26.1889   -1.9522 C.2       4 UNK         0.5031 
     21 O          24.9646   26.5208   -2.9194 O.2       4 UNK        -0.5229 
     22 CA         24.9595   25.5173   -0.7514 C.3       4 UNK         0.0329 
     23 CB         25.1059   23.9888   -0.8150 C.3       4 UNK        -0.2001 
     24 N          25.4206   26.0129    0.5483 N.am      4 UNK        -0.4303 
     25 C          25.2914   27.2788    0.9740 C.2       3 UNK         0.5044 
     26 O          24.7641   28.1742    0.3145 O.2       3 UNK        -0.5152 
     27 CA         25.8909   27.6191    2.3486 C.3       3 UNK         0.0319 
     28 CB         24.9150   27.2693    3.4832 C.3       3 UNK        -0.2001 
     29 N          27.1758   26.9549    2.5707 N.am      3 UNK        -0.4354 
     30 C          28.2899   27.2396    1.8808 C.2       2 UNK         0.4964 
     31 O          28.3494   28.1148    1.0208 O.2       2 UNK        -0.5047 
     32 CA         29.5228   26.3661    2.1612 C.3       2 UNK         0.0288 
     33 CB         30.2480   26.8323    3.4328 C.3       2 UNK        -0.2113 
     34 N          29.1868   24.9469    2.2769 N.am      2 UNK        -0.4145 
     35 C          28.6538   24.1998    1.2973 C.2       1 UNK         0.5006 
     36 O          28.4108   24.6150    0.1635 O.2       1 UNK        -0.5103 
     37 C          27.6753   28.6749   -2.7336 C.2       5 UNK         0.5055 
     38 O          28.2096   29.3806   -3.5913 O.2       5 UNK        -0.5220 
     39 N          27.0215   29.1674   -1.6692 N.am      6 UNK        -0.4450 
     40 CA         26.8695   30.5755   -1.2833 C.3       6 UNK         0.0367 
     41 CB         26.0532   31.3607   -2.3325 C.3       6 UNK        -0.1929 
     42 C          28.2058   31.2532   -0.9166 C.2       6 UNK         0.5070 
     43 O          28.4042   32.4339   -1.2110 O.2       6 UNK        -0.5237 
     44 N          29.0885   30.4977   -0.2553 N.am      7 UNK        -0.4739 
     45 CA         30.3038   30.9846    0.3926 C.3       7 UNK         0.0276 
     46 CB         31.3661   29.8711    0.3305 C.3       7 UNK        -0.1927 
     47 C          29.9996   31.3688    1.8519 C.2       7 UNK         0.5013 
     48 O          28.8956   31.1245    2.3484 O.2       7 UNK        -0.5193 
     49 N          30.9945   31.9535    2.5305 N.am      8 UNK        -0.4253 
     50 CA         30.9516   32.2036    3.9722 C.3       8 UNK         0.0242 
     51 CB         32.0996   33.1488    4.3630 C.3       8 UNK        -0.2000 
     52 C          31.0523   30.8779    4.7452 C.2       8 UNK         0.4948 
     53 O          31.9216   30.0627    4.4293 O.2       8 UNK        -0.5275 
     54 N          30.1755   30.6915    5.7403 N.am      9 UNK        -0.4246 
     55 CA         30.1714   29.5244    6.6257 C.3       9 UNK         0.0261 
     56 CB         28.8807   29.5233    7.4609 C.3       9 UNK        -0.1959 
     57 C          31.4113   29.5099    7.5356 C.2       9 UNK         0.5033 
     58 O          31.8520   30.5781    7.9686 O.2       9 UNK        -0.5390 
     59 N          31.9283   28.3022    7.8104 N.am      10 UNK        -0.4215 
     60 CA         33.1856   28.0208    8.5177 C.3       10 UNK         0.0240 
     61 CB         33.1066   28.4507    9.9993 C.3       10 UNK        -0.1982 
     62 C          34.3857   28.6307    7.7673 C.2       10 UNK         0.4970 
     63 O          35.0137   29.5694    8.2612 O.2       10 UNK        -0.4916 
     64 N          34.6285   28.0980    6.5612 N.am      11 UNK        -0.4279 
     65 CA         35.6385   28.5273    5.5801 C.3       11 UNK         0.1003 
     66 C          37.0584   28.7467    6.1759 C.2       11 UNK         0.5709 
     67 N          37.7346   29.8228    5.7967 N.am      11 UNK        -0.7358 
     68 O          37.5668   27.9231    6.9352 O.2       11 UNK        -0.4999 
     69 C69        35.7299   27.5249    4.3986 C.3       12 UNK        -0.0954 
     70 S70        34.1413   27.1763    3.5713 S.3       12 UNK        -0.2268 
     71 C71        34.7746   26.4107    2.0486 C.3       12 UNK         0.0203 
     72 H72        25.9944   23.9803    5.3426 H         1 UNK         0.0888 
     73 H73        25.0722   22.5724    4.8099 H         1 UNK         0.0888 
     74 H74        26.7352   22.3779    5.3691 H         1 UNK         0.0888 
     75 H75        28.1634   22.0583    3.6584 H         1 UNK         0.3017 
     76 H76        27.4854   22.4644    0.9627 H         1 UNK         0.0873 
     77 H77        29.8203   21.8296    0.4511 H         1 UNK         0.0745 
     78 H78        29.0578   20.7394    1.5579 H         1 UNK         0.0745 
     79 H79        32.1499   21.3737    0.7480 H         1 UNK         0.0705 
     80 H80        33.1246   21.6890    2.1525 H         1 UNK         0.0705 
     81 H81        33.8965   23.9267    2.7048 H         1 UNK         0.1334 
     82 H82        33.3481   27.0290   -0.2070 H         1 UNK         0.1417 
     83 H83        31.2479   23.3159   -0.6132 H         1 UNK         0.1562 
     84 H84        31.2457   24.8658   -2.4213 H         1 UNK         0.0748 
     85 H85        32.3378   26.2278   -2.4436 H         1 UNK         0.0748 
     86 H86        29.1781   25.5584   -3.2608 H         1 UNK         0.0940 
     87 H87        29.7119   27.1062   -3.8486 H         1 UNK         0.0940 
     88 H88        27.2823   26.9330   -3.8570 H         1 UNK         0.0703 
     89 H89        27.4908   26.0654   -1.0657 H         1 UNK         0.3081 
     90 H90        23.8948   25.7505   -0.8188 H         1 UNK         0.0719 
     91 H91        24.5902   23.5047    0.0147 H         1 UNK         0.0809 
     92 H92        24.6765   23.5964   -1.7378 H         1 UNK         0.0809 
     93 H93        26.1497   23.6785   -0.7874 H         1 UNK         0.0809 
     94 H94        25.8202   25.3291    1.1857 H         1 UNK         0.2990 
     95 H95        26.0651   28.6973    2.3753 H         1 UNK         0.0690 
     96 H96        23.9657   27.7904    3.3516 H         1 UNK         0.0788 
     97 H97        25.3134   27.5641    4.4541 H         1 UNK         0.0788 
     98 H98        24.6962   26.2019    3.5196 H         1 UNK         0.0788 
     99 H99        27.1868   26.1831    3.2209 H         1 UNK         0.2993 
    100 H100       30.2113   26.4751    1.3226 H         1 UNK         0.0949 
    101 H101       29.6239   26.7273    4.3206 H         1 UNK         0.0767 
    102 H102       31.1642   26.2634    3.5932 H         1 UNK         0.0767 
    103 H103       30.5326   27.8826    3.3525 H         1 UNK         0.0767 
    104 H104       29.3692   24.5022    3.1644 H         1 UNK         0.3013 
    105 H105       26.6258   28.5036   -1.0158 H         1 UNK         0.3121 
    106 H106       26.2851   30.5645   -0.3619 H         1 UNK         0.0774 
    107 H107       26.6003   31.4799   -3.2679 H         1 UNK         0.0815 
    108 H108       25.8125   32.3606   -1.9696 H         1 UNK         0.0815 
    109 H109       25.1098   30.8622   -2.5547 H         1 UNK         0.0815 
    110 H110       28.7962   29.5640    0.0323 H         1 UNK         0.2987 
    111 H111       30.6784   31.8671   -0.1304 H         1 UNK         0.0949 
    112 H112       31.0500   28.9817    0.8776 H         1 UNK         0.0806 
    113 H113       31.5654   29.5731   -0.6989 H         1 UNK         0.0806 
    114 H114       32.3141   30.1960    0.7604 H         1 UNK         0.0806 
    115 H115       31.8841   32.0926    2.0741 H         1 UNK         0.3010 
    116 H116       30.0043   32.6919    4.2120 H         1 UNK         0.0829 
    117 H117       32.0257   34.1027    3.8405 H         1 UNK         0.0813 
    118 H118       32.0797   33.3622    5.4327 H         1 UNK         0.0813 
    119 H119       33.0748   32.7150    4.1372 H         1 UNK         0.0813 
    120 H120       29.5151   31.4241    5.9553 H         1 UNK         0.3038 
    121 H121       30.1818   28.6299    5.9994 H         1 UNK         0.0769 
    122 H122       28.8121   30.4059    8.0983 H         1 UNK         0.0811 
    123 H123       28.8365   28.6487    8.1113 H         1 UNK         0.0811 
    124 H124       27.9956   29.4971    6.8248 H         1 UNK         0.0811 
    125 H125       31.4687   27.4943    7.4131 H         1 UNK         0.3204 
    126 H126       33.3204   26.9379    8.5023 H         1 UNK         0.0748 
    127 H127       34.0129   28.1636   10.5339 H         1 UNK         0.0771 
    128 H128       32.9953   29.5296   10.1108 H         1 UNK         0.0771 
    129 H129       32.2668   27.9744   10.5052 H         1 UNK         0.0771 
    130 H130       34.0374   27.3446    6.2445 H         1 UNK         0.2980 
    131 H131       35.2854   29.4821    5.1860 H         1 UNK         0.0545 
    132 H132       38.6633   29.9703    6.1599 H         1 UNK         0.3459 
    133 H133       37.3325   30.4957    5.1628 H         1 UNK         0.3459 
    134 H134       36.4240   27.9051    3.6461 H         1 UNK         0.0616 
    135 H135       36.1403   26.5721    4.7394 H         1 UNK         0.0616 
    136 H136       35.6256   25.7722    2.2911 H         1 UNK         0.0634 
    137 H137       35.1572   27.1932    1.3915 H         1 UNK         0.0634 
@<TRIPOS>BOND
     1    1    2 1    
     2    1   72 1    
     3    1   73 1    
     4    1   74 1    
     5    2    3 2    
     6    2    4 am   BACKBONE|DICT|INTERRES
     7    4    5 1    
     8    4   75 1    
     9    5    6 1    
    10    5   35 1    
    11    5   76 1    
    12    6    7 1    
    13    6   77 1    
    14    6   78 1    
    15    7    8 1    
    16    8    9 1    
    17    8   79 1    
    18    8   80 1    
    19    9   10 ar   
    20    9   14 ar   
    21   10   11 ar   
    22   10   81 1    
    23   11   12 ar   
    24   11   71 1    
    25   12   13 ar   
    26   12   82 1    
    27   13   14 ar   
    28   13   15 1    
    29   14   83 1    
    30   15   16 1    
    31   15   84 1    
    32   15   85 1    
    33   16   17 1    
    34   17   18 1    
    35   17   86 1    
    36   17   87 1    
    37   18   19 1    
    38   18   37 1    
    39   18   88 1    
    40   19   20 am   BACKBONE|DICT|INTERRES
    41   19   89 1    
    42   20   21 2    
    43   20   22 1    
    44   22   23 1    
    45   22   24 1    
    46   22   90 1    
    47   23   91 1    
    48   23   92 1    
    49   23   93 1    
    50   24   25 am   BACKBONE|DICT|INTERRES
    51   24   94 1    
    52   25   26 2    
    53   25   27 1    
    54   27   28 1    
    55   27   29 1    
    56   27   95 1    
    57   28   96 1    
    58   28   97 1    
    59   28   98 1    
    60   29   30 am   BACKBONE|DICT|INTERRES
    61   29   99 1    
    62   30   31 2    
    63   30   32 1    
    64   32   33 1    
    65   32   34 1    
    66   32  100 1    
    67   33  101 1    
    68   33  102 1    
    69   33  103 1    
    70   34   35 am   BACKBONE|DICT|INTERRES
    71   34  104 1    
    72   35   36 2    
    73   37   38 2    
    74   37   39 am   BACKBONE|DICT|INTERRES
    75   39   40 1    
    76   39  105 1    
    77   40   41 1    
    78   40   42 1    
    79   40  106 1    
    80   41  107 1    
    81   41  108 1    
    82   41  109 1    
    83   42   43 2    
    84   42   44 am   BACKBONE|DICT|INTERRES
    85   44   45 1    
    86   44  110 1    
    87   45   46 1    
    88   45   47 1    
    89   45  111 1    
    90   46  112 1    
    91   46  113 1    
    92   46  114 1    
    93   47   48 2    
    94   47   49 am   BACKBONE|DICT|INTERRES
    95   49   50 1    
    96   49  115 1    
    97   50   51 1    
    98   50   52 1    
    99   50  116 1    
   100   51  117 1    
   101   51  118 1    
   102   51  119 1    
   103   52   53 2    
   104   52   54 am   BACKBONE|DICT|INTERRES
   105   54   55 1    
   106   54  120 1    
   107   55   56 1    
   108   55   57 1    
   109   55  121 1    
   110   56  122 1    
   111   56  123 1    
   112   56  124 1    
   113   57   58 2    
   114   57   59 am   BACKBONE|DICT|INTERRES
   115   59   60 1    
   116   59  125 1    
   117   60   61 1    
   118   60   62 1    
   119   60  126 1    
   120   61  127 1    
   121   61  128 1    
   122   61  129 1    
   123   62   63 2    
   124   62   64 am   BACKBONE|DICT|INTERRES
   125   64   65 1    
   126   64  130 1    
   127   65   66 1    
   128   65   69 1    
   129   65  131 1    
   130   66   67 am   BACKBONE|DICT|INTERRES
   131   66   68 2    
   132   67  132 1    
   133   67  133 1    
   134   69   70 1    
   135   69  134 1    
   136   69  135 1    
   137   70   71 1    
   138   71  136 1    
   139   71  137 1    
@<TRIPOS>SUBSTRUCTURE
     1 UNK         1 GROUP             0       ****    0 ROOT    
