@<TRIPOS>MOLECULE
3R136
137   139    1
SMALL
USER_CHARGES


@<TRIPOS>ATOM
      1 CA         30.7522   21.5841    5.1828 C.3       0 UNK        -0.1979 
      2 C          29.7267   22.0888    4.1803 C.2       0 UNK         0.4864 
      3 O          28.5245   21.9777    4.4254 O.2       0 UNK        -0.5359 
      4 N          30.1840   22.6521    3.0542 N.am      1 UNK        -0.4318 
      5 CA         29.3622   23.0904    1.9155 C.3       1 UNK         0.0824 
      6 C6         30.1502   23.0634    0.5751 C.3       12 UNK        -0.0944 
      7 S7         31.1597   21.5481    0.3539 S.3       12 UNK        -0.2672 
      8 C8         32.7552   22.1495   -0.3114 C.3       12 UNK         0.0333 
      9 C9         33.2620   23.4159    0.3679 C.ar      12 UNK        -0.0807 
     10 C10        33.6626   23.4000    1.7081 C.ar      12 UNK        -0.0894 
     11 C11        34.0554   24.5841    2.3403 C.ar      12 UNK        -0.0804 
     12 C12        34.0570   25.7807    1.6177 C.ar      12 UNK        -0.0824 
     13 C13        33.6652   25.8131    0.2773 C.ar      12 UNK        -0.0762 
     14 C14        33.2895   24.6186   -0.3466 C.ar      12 UNK        -0.0782 
     15 C15        33.6754   27.1490   -0.4670 C.3       12 UNK         0.0230 
     16 S16        32.3606   27.3484   -1.7193 S.3       12 UNK        -0.2608 
     17 C17        30.8498   27.1135   -0.7269 C.3       12 UNK        -0.0989 
     18 CA         29.5734   27.4850   -1.5304 C.3       5 UNK         0.0716 
     19 N          28.4320   26.6290   -1.1987 N.am      5 UNK        -0.4135 
     20 C          27.3915   26.4142   -2.0184 C.2       4 UNK         0.5031 
     21 O          27.3597   26.7617   -3.1998 O.2       4 UNK        -0.5229 
     22 CA         26.1562   25.7292   -1.4112 C.3       4 UNK         0.0329 
     23 CB         26.3774   24.2156   -1.2588 C.3       4 UNK        -0.2001 
     24 N          25.7760   26.3062   -0.1211 N.am      4 UNK        -0.4303 
     25 C          25.3633   27.5646    0.0872 C.2       3 UNK         0.5044 
     26 O          25.1818   28.3815   -0.8154 O.2       3 UNK        -0.5152 
     27 CA         25.1400   28.0122    1.5455 C.3       3 UNK         0.0319 
     28 CB         23.6778   27.8001    1.9835 C.3       3 UNK        -0.2001 
     29 N          26.0947   27.4337    2.5044 N.am      3 UNK        -0.4354 
     30 C          26.1991   26.1598    2.9054 C.2       2 UNK         0.4964 
     31 O          25.4371   25.2561    2.5548 O.2       2 UNK        -0.5047 
     32 CA         27.3910   25.8276    3.8105 C.3       2 UNK         0.0288 
     33 CB         26.9313   25.6337    5.2638 C.3       2 UNK        -0.2113 
     34 N          28.0885   24.6227    3.3611 N.am      2 UNK        -0.4145 
     35 C          28.6925   24.4632    2.1758 C.2       1 UNK         0.5006 
     36 O          28.7410   25.3516    1.3195 O.2       1 UNK        -0.5103 
     37 C          29.1512   28.9563   -1.3550 C.2       5 UNK         0.5055 
     38 O          29.0746   29.6943   -2.3383 O.2       5 UNK        -0.5220 
     39 N          28.8143   29.3152   -0.1102 N.am      6 UNK        -0.4450 
     40 CA         28.1871   30.5539    0.3444 C.3       6 UNK         0.0367 
     41 CB         29.0488   31.7989    0.0410 C.3       6 UNK        -0.1929 
     42 C          27.9593   30.4027    1.8549 C.2       6 UNK         0.5070 
     43 O          28.3510   29.3868    2.4391 O.2       6 UNK        -0.5237 
     44 N          27.3362   31.4082    2.4767 N.am      7 UNK        -0.4739 
     45 CA         27.1309   31.4549    3.9284 C.3       7 UNK         0.0276 
     46 CB         25.9849   32.4295    4.2442 C.3       7 UNK        -0.1927 
     47 C          28.4012   31.8473    4.7082 C.2       7 UNK         0.5013 
     48 O          28.5178   31.4833    5.8783 O.2       7 UNK        -0.5193 
     49 N          29.3081   32.5949    4.0613 N.am      8 UNK        -0.4253 
     50 CA         30.5153   33.1644    4.6722 C.3       8 UNK         0.0242 
     51 CB         30.4562   34.6963    4.5329 C.3       8 UNK        -0.2000 
     52 C          31.8263   32.6256    4.0728 C.2       8 UNK         0.4948 
     53 O          32.8941   32.9592    4.5911 O.2       8 UNK        -0.5275 
     54 N          31.7593   31.8180    3.0039 N.am      9 UNK        -0.4246 
     55 CA         32.9271   31.2480    2.3222 C.3       9 UNK         0.0261 
     56 CB         32.5588   30.8829    0.8713 C.3       9 UNK        -0.1959 
     57 C          33.4743   30.0412    3.0992 C.2       9 UNK         0.5033 
     58 O          33.2654   28.9026    2.6757 O.2       9 UNK        -0.5390 
     59 N          34.1088   30.3142    4.2483 N.am      10 UNK        -0.4215 
     60 CA         34.6439   29.3712    5.2401 C.3       10 UNK         0.0240 
     61 CB         35.8189   28.5498    4.6668 C.3       10 UNK        -0.1982 
     62 C          33.5411   28.4896    5.8513 C.2       10 UNK         0.4970 
     63 O          33.1042   28.7536    6.9718 O.2       10 UNK        -0.4916 
     64 N          33.0929   27.4917    5.0847 N.am      11 UNK        -0.4279 
     65 CA         31.8591   26.7402    5.3268 C.3       11 UNK         0.1003 
     66 C          30.6009   27.5917    5.0064 C.2       11 UNK         0.5709 
     67 N          30.6021   28.3466    3.9127 N.am      11 UNK        -0.7358 
     68 O          29.6227   27.5522    5.7461 O.2       11 UNK        -0.4999 
     69 C69        31.8192   25.4261    4.5067 C.3       12 UNK        -0.0954 
     70 S70        33.1197   24.2280    4.9607 S.3       12 UNK        -0.2268 
     71 C71        34.4832   24.5843    3.8022 C.3       12 UNK         0.0203 
     72 H72        30.8062   22.2583    6.0372 H         1 UNK         0.0888 
     73 H73        31.7453   21.5084    4.7405 H         1 UNK         0.0888 
     74 H74        30.4709   20.5954    5.5443 H         1 UNK         0.0888 
     75 H75        31.1804   22.7427    2.9161 H         1 UNK         0.3017 
     76 H76        28.5439   22.3747    1.8097 H         1 UNK         0.0873 
     77 H77        30.7834   23.9444    0.5095 H         1 UNK         0.0745 
     78 H78        29.4621   23.1353   -0.2685 H         1 UNK         0.0745 
     79 H79        33.5012   21.3611   -0.2033 H         1 UNK         0.0705 
     80 H80        32.6396   22.3106   -1.3844 H         1 UNK         0.0705 
     81 H81        33.6482   22.4722    2.2637 H         1 UNK         0.1334 
     82 H82        34.3648   26.6964    2.1004 H         1 UNK         0.1417 
     83 H83        32.9866   24.6288   -1.3845 H         1 UNK         0.1562 
     84 H84        34.6425   27.2639   -0.9575 H         1 UNK         0.0748 
     85 H85        33.5907   27.9735    0.2407 H         1 UNK         0.0748 
     86 H86        30.9350   27.6564    0.2166 H         1 UNK         0.0940 
     87 H87        30.8168   26.0597   -0.4520 H         1 UNK         0.0940 
     88 H88        29.7869   27.3329   -2.5911 H         1 UNK         0.0703 
     89 H89        28.4000   26.2594   -0.2503 H         1 UNK         0.3081 
     90 H90        25.3215   25.8822   -2.0986 H         1 UNK         0.0719 
     91 H91        27.1657   23.9903   -0.5413 H         1 UNK         0.0809 
     92 H92        25.4687   23.7154   -0.9237 H         1 UNK         0.0809 
     93 H93        26.6627   23.7650   -2.2104 H         1 UNK         0.0809 
     94 H94        25.8462   25.7055    0.6942 H         1 UNK         0.2990 
     95 H95        25.3232   29.0870    1.5679 H         1 UNK         0.0690 
     96 H96        23.5137   28.1533    3.0015 H         1 UNK         0.0788 
     97 H97        23.3818   26.7518    1.9391 H         1 UNK         0.0788 
     98 H98        22.9969   28.3527    1.3348 H         1 UNK         0.0788 
     99 H99        26.8295   28.0720    2.7948 H         1 UNK         0.2993 
    100 H100       28.1014   26.6542    3.7671 H         1 UNK         0.0949 
    101 H101       26.4451   26.5342    5.6415 H         1 UNK         0.0767 
    102 H102       26.2201   24.8116    5.3559 H         1 UNK         0.0767 
    103 H103       27.7752   25.4233    5.9211 H         1 UNK         0.0767 
    104 H104       28.0621   23.8148    3.9762 H         1 UNK         0.3013 
    105 H105       28.9083   28.6428    0.6434 H         1 UNK         0.3121 
    106 H106       27.2171   30.6438   -0.1483 H         1 UNK         0.0774 
    107 H107       29.3167   31.8737   -1.0118 H         1 UNK         0.0815 
    108 H108       29.9687   31.8037    0.6195 H         1 UNK         0.0815 
    109 H109       28.5118   32.7158    0.2856 H         1 UNK         0.0815 
    110 H110       27.0062   32.1984    1.9400 H         1 UNK         0.2987 
    111 H111       26.8327   30.4619    4.2739 H         1 UNK         0.0949 
    112 H112       26.2149   33.4453    3.9202 H         1 UNK         0.0806 
    113 H113       25.0582   32.1225    3.7588 H         1 UNK         0.0806 
    114 H114       25.7891   32.4665    5.3169 H         1 UNK         0.0806 
    115 H115       29.1059   32.8687    3.1110 H         1 UNK         0.3010 
    116 H116       30.5484   32.9271    5.7376 H         1 UNK         0.0829 
    117 H117       29.5649   35.1027    5.0114 H         1 UNK         0.0813 
    118 H118       31.3179   35.1684    5.0070 H         1 UNK         0.0813 
    119 H119       30.4478   35.0079    3.4877 H         1 UNK         0.0813 
    120 H120       30.8529   31.5147    2.6851 H         1 UNK         0.3038 
    121 H121       33.7193   31.9988    2.2779 H         1 UNK         0.0769 
    122 H122       31.7424   30.1610    0.8242 H         1 UNK         0.0811 
    123 H123       33.4113   30.4389    0.3558 H         1 UNK         0.0811 
    124 H124       32.2722   31.7657    0.3005 H         1 UNK         0.0811 
    125 H125       34.1104   31.2901    4.5310 H         1 UNK         0.3204 
    126 H126       35.0415   29.9795    6.0541 H         1 UNK         0.0748 
    127 H127       36.6520   29.1989    4.3973 H         1 UNK         0.0771 
    128 H128       36.1917   27.8358    5.4024 H         1 UNK         0.0771 
    129 H129       35.5434   27.9866    3.7760 H         1 UNK         0.0771 
    130 H130       33.4420   27.4645    4.1355 H         1 UNK         0.2980 
    131 H131       31.8190   26.4796    6.3862 H         1 UNK         0.0545 
    132 H132       29.7607   28.8420    3.6420 H         1 UNK         0.3459 
    133 H133       31.4291   28.3979    3.3306 H         1 UNK         0.3459 
    134 H134       30.8668   24.9228    4.6793 H         1 UNK         0.0616 
    135 H135       31.8498   25.6327    3.4363 H         1 UNK         0.0616 
    136 H136       34.9345   25.5385    4.0752 H         1 UNK         0.0634 
    137 H137       35.2619   23.8337    3.9431 H         1 UNK         0.0634 
@<TRIPOS>BOND
     1    1    2 1    
     2    1   72 1    
     3    1   73 1    
     4    1   74 1    
     5    2    3 2    
     6    2    4 am   BACKBONE|DICT|INTERRES
     7    4    5 1    
     8    4   75 1    
     9    5    6 1    
    10    5   35 1    
    11    5   76 1    
    12    6    7 1    
    13    6   77 1    
    14    6   78 1    
    15    7    8 1    
    16    8    9 1    
    17    8   79 1    
    18    8   80 1    
    19    9   10 ar   
    20    9   14 ar   
    21   10   11 ar   
    22   10   81 1    
    23   11   12 ar   
    24   11   71 1    
    25   12   13 ar   
    26   12   82 1    
    27   13   14 ar   
    28   13   15 1    
    29   14   83 1    
    30   15   16 1    
    31   15   84 1    
    32   15   85 1    
    33   16   17 1    
    34   17   18 1    
    35   17   86 1    
    36   17   87 1    
    37   18   19 1    
    38   18   37 1    
    39   18   88 1    
    40   19   20 am   BACKBONE|DICT|INTERRES
    41   19   89 1    
    42   20   21 2    
    43   20   22 1    
    44   22   23 1    
    45   22   24 1    
    46   22   90 1    
    47   23   91 1    
    48   23   92 1    
    49   23   93 1    
    50   24   25 am   BACKBONE|DICT|INTERRES
    51   24   94 1    
    52   25   26 2    
    53   25   27 1    
    54   27   28 1    
    55   27   29 1    
    56   27   95 1    
    57   28   96 1    
    58   28   97 1    
    59   28   98 1    
    60   29   30 am   BACKBONE|DICT|INTERRES
    61   29   99 1    
    62   30   31 2    
    63   30   32 1    
    64   32   33 1    
    65   32   34 1    
    66   32  100 1    
    67   33  101 1    
    68   33  102 1    
    69   33  103 1    
    70   34   35 am   BACKBONE|DICT|INTERRES
    71   34  104 1    
    72   35   36 2    
    73   37   38 2    
    74   37   39 am   BACKBONE|DICT|INTERRES
    75   39   40 1    
    76   39  105 1    
    77   40   41 1    
    78   40   42 1    
    79   40  106 1    
    80   41  107 1    
    81   41  108 1    
    82   41  109 1    
    83   42   43 2    
    84   42   44 am   BACKBONE|DICT|INTERRES
    85   44   45 1    
    86   44  110 1    
    87   45   46 1    
    88   45   47 1    
    89   45  111 1    
    90   46  112 1    
    91   46  113 1    
    92   46  114 1    
    93   47   48 2    
    94   47   49 am   BACKBONE|DICT|INTERRES
    95   49   50 1    
    96   49  115 1    
    97   50   51 1    
    98   50   52 1    
    99   50  116 1    
   100   51  117 1    
   101   51  118 1    
   102   51  119 1    
   103   52   53 2    
   104   52   54 am   BACKBONE|DICT|INTERRES
   105   54   55 1    
   106   54  120 1    
   107   55   56 1    
   108   55   57 1    
   109   55  121 1    
   110   56  122 1    
   111   56  123 1    
   112   56  124 1    
   113   57   58 2    
   114   57   59 am   BACKBONE|DICT|INTERRES
   115   59   60 1    
   116   59  125 1    
   117   60   61 1    
   118   60   62 1    
   119   60  126 1    
   120   61  127 1    
   121   61  128 1    
   122   61  129 1    
   123   62   63 2    
   124   62   64 am   BACKBONE|DICT|INTERRES
   125   64   65 1    
   126   64  130 1    
   127   65   66 1    
   128   65   69 1    
   129   65  131 1    
   130   66   67 am   BACKBONE|DICT|INTERRES
   131   66   68 2    
   132   67  132 1    
   133   67  133 1    
   134   69   70 1    
   135   69  134 1    
   136   69  135 1    
   137   70   71 1    
   138   71  136 1    
   139   71  137 1    
@<TRIPOS>SUBSTRUCTURE
     1 UNK         1 GROUP             0       ****    0 ROOT    
