@<TRIPOS>MOLECULE
3R136
137   139    1
SMALL
USER_CHARGES


@<TRIPOS>ATOM
      1 CA         35.1909   22.9770    1.0496 C.3       0 UNK        -0.1979 
      2 C          33.7610   23.4779    1.1846 C.2       0 UNK         0.4864 
      3 O          33.5444   24.6867    1.2820 O.2       0 UNK        -0.5359 
      4 N          32.7863   22.5605    1.2045 N.am      1 UNK        -0.4318 
      5 CA         31.3554   22.8625    1.2863 C.3       1 UNK         0.0824 
      6 C6         30.5150   21.6038    1.6216 C.3       12 UNK        -0.0944 
      7 S7         30.9196   20.9282    3.2676 S.3       12 UNK        -0.2672 
      8 C8         29.3143   21.0418    4.1356 C.3       12 UNK         0.0333 
      9 C9         28.7385   22.4543    4.2413 C.ar      12 UNK        -0.0807 
     10 C10        29.5634   23.5713    4.4149 C.ar      12 UNK        -0.0894 
     11 C11        29.0171   24.8540    4.4949 C.ar      12 UNK        -0.0804 
     12 C12        27.6298   25.0176    4.4601 C.ar      12 UNK        -0.0824 
     13 C13        26.7891   23.9118    4.3030 C.ar      12 UNK        -0.0762 
     14 C14        27.3517   22.6358    4.1854 C.ar      12 UNK        -0.0782 
     15 C15        25.2746   24.0846    4.2892 C.3       12 UNK         0.0230 
     16 S16        24.6506   24.6860    2.6841 S.3       12 UNK        -0.2608 
     17 C17        24.8207   26.4961    2.8586 C.3       12 UNK        -0.0989 
     18 CA         25.9449   27.0666    1.9537 C.3       5 UNK         0.0716 
     19 N          25.6724   26.9364    0.5157 N.am      5 UNK        -0.4135 
     20 C          24.7268   27.5809   -0.1900 C.2       4 UNK         0.5031 
     21 O          23.8677   28.3043    0.3158 O.2       4 UNK        -0.5229 
     22 CA         24.7456   27.4443   -1.7261 C.3       4 UNK         0.0329 
     23 CB         25.1222   28.7880   -2.3747 C.3       4 UNK        -0.2001 
     24 N          25.6687   26.4200   -2.2144 N.am      4 UNK        -0.4303 
     25 C          25.4087   25.1069   -2.2513 C.2       3 UNK         0.5044 
     26 O          24.3234   24.6124   -1.9457 O.2       3 UNK        -0.5152 
     27 CA         26.5662   24.1862   -2.6839 C.3       3 UNK         0.0319 
     28 CB         26.4571   23.8557   -4.1813 C.3       3 UNK        -0.2001 
     29 N          27.9091   24.7153   -2.4013 N.am      3 UNK        -0.4354 
     30 C          28.3713   25.0167   -1.1801 C.2       2 UNK         0.4964 
     31 O          27.6854   24.9740   -0.1574 O.2       2 UNK        -0.5047 
     32 CA         29.8296   25.4823   -1.0754 C.3       2 UNK         0.0288 
     33 CB         29.9005   26.9980   -0.8227 C.3       2 UNK        -0.2113 
     34 N          30.4806   24.7787    0.0273 N.am      2 UNK        -0.4145 
     35 C          30.8758   23.5010   -0.0297 C.2       1 UNK         0.5006 
     36 O          30.8676   22.8253   -1.0624 O.2       1 UNK        -0.5103 
     37 C          26.3207   28.5240    2.2976 C.2       5 UNK         0.5055 
     38 O          25.5954   29.2068    3.0249 O.2       5 UNK        -0.5220 
     39 N          27.4352   28.9782    1.7090 N.am      6 UNK        -0.4450 
     40 CA         27.9937   30.3240    1.8533 C.3       6 UNK         0.0367 
     41 CB         29.0783   30.5153    0.7746 C.3       6 UNK        -0.1929 
     42 C          28.5480   30.6090    3.2646 C.2       6 UNK         0.5070 
     43 O          28.6027   29.7172    4.1147 O.2       6 UNK        -0.5237 
     44 N          28.9682   31.8618    3.4810 N.am      7 UNK        -0.4739 
     45 CA         29.6235   32.3208    4.7076 C.3       7 UNK         0.0276 
     46 CB         29.7537   33.8519    4.6590 C.3       7 UNK        -0.1927 
     47 C          31.0085   31.6799    4.8984 C.2       7 UNK         0.5013 
     48 O          31.6994   31.4039    3.9129 O.2       7 UNK        -0.5193 
     49 N          31.4164   31.5215    6.1651 N.am      8 UNK        -0.4253 
     50 CA         32.6723   30.8927    6.6017 C.3       8 UNK         0.0242 
     51 CB         32.6727   30.7985    8.1368 C.3       8 UNK        -0.2000 
     52 C          33.9677   31.5666    6.1030 C.2       8 UNK         0.4948 
     53 O          35.0355   30.9621    6.2011 O.2       8 UNK        -0.5275 
     54 N          33.8630   32.7898    5.5658 N.am      9 UNK        -0.4246 
     55 CA         34.9377   33.4814    4.8517 C.3       9 UNK         0.0261 
     56 CB         34.5362   34.9504    4.6398 C.3       9 UNK        -0.1959 
     57 C          35.2925   32.8213    3.5035 C.2       9 UNK         0.5033 
     58 O          36.4262   32.9794    3.0476 O.2       9 UNK        -0.5390 
     59 N          34.3334   32.1097    2.8934 N.am      10 UNK        -0.4215 
     60 CA         34.4943   31.3895    1.6289 C.3       10 UNK         0.0240 
     61 CB         33.4911   31.9414    0.6006 C.3       10 UNK        -0.1982 
     62 C          34.2926   29.8789    1.8169 C.2       10 UNK         0.4970 
     63 O          35.0791   29.0954    1.2849 O.2       10 UNK        -0.4916 
     64 N          33.2387   29.5004    2.5481 N.am      11 UNK        -0.4279 
     65 CA         32.8469   28.1157    2.8272 C.3       11 UNK         0.1003 
     66 C          33.8025   27.4286    3.8379 C.2       11 UNK         0.5709 
     67 N          34.2154   26.1974    3.5770 N.am      11 UNK        -0.7358 
     68 O          34.1413   27.9902    4.8766 O.2       11 UNK        -0.4999 
     69 C69        31.3769   28.0888    3.3120 C.3       12 UNK        -0.0954 
     70 S70        30.5193   26.5311    2.9366 S.3       12 UNK        -0.2268 
     71 C71        29.9304   26.0629    4.5899 C.3       12 UNK         0.0203 
     72 H72        35.2385   21.8898    0.9897 H         1 UNK         0.0888 
     73 H73        35.7818   23.2960    1.9077 H         1 UNK         0.0888 
     74 H74        35.6475   23.3874    0.1494 H         1 UNK         0.0888 
     75 H75        33.0191   21.5817    1.1188 H         1 UNK         0.3017 
     76 H76        31.2138   23.5886    2.0889 H         1 UNK         0.0873 
     77 H77        30.6787   20.8194    0.8801 H         1 UNK         0.0745 
     78 H78        29.4488   21.8361    1.5816 H         1 UNK         0.0745 
     79 H79        28.6081   20.3830    3.6274 H         1 UNK         0.0705 
     80 H80        29.4368   20.6432    5.1433 H         1 UNK         0.0705 
     81 H81        30.6367   23.4510    4.4648 H         1 UNK         0.1334 
     82 H82        27.2076   26.0086    4.5458 H         1 UNK         0.1417 
     83 H83        26.7046   21.7777    4.0625 H         1 UNK         0.1562 
     84 H84        24.9656   24.7541    5.0931 H         1 UNK         0.0748 
     85 H85        24.7914   23.1299    4.5026 H         1 UNK         0.0748 
     86 H86        25.0094   26.7386    3.9054 H         1 UNK         0.0940 
     87 H87        23.8615   26.9595    2.6228 H         1 UNK         0.0940 
     88 H88        26.8445   26.4771    2.1378 H         1 UNK         0.0703 
     89 H89        26.3016   26.3050    0.0288 H         1 UNK         0.3081 
     90 H90        23.7326   27.1857   -2.0421 H         1 UNK         0.0719 
     91 H91        24.4280   29.5751   -2.0766 H         1 UNK         0.0809 
     92 H92        26.1230   29.1111   -2.0849 H         1 UNK         0.0809 
     93 H93        25.0892   28.7274   -3.4628 H         1 UNK         0.0809 
     94 H94        26.5853   26.7307   -2.5017 H         1 UNK         0.2990 
     95 H95        26.4604   23.2559   -2.1217 H         1 UNK         0.0690 
     96 H96        27.2034   23.1198   -4.4817 H         1 UNK         0.0788 
     97 H97        26.5893   24.7430   -4.8018 H         1 UNK         0.0788 
     98 H98        25.4785   23.4354   -4.4184 H         1 UNK         0.0788 
     99 H99        28.5355   24.7907   -3.1906 H         1 UNK         0.2993 
    100 H100       30.3569   25.2546   -2.0046 H         1 UNK         0.0949 
    101 H101       29.3906   27.2771    0.0992 H         1 UNK         0.0767 
    102 H102       30.9339   27.3376   -0.7452 H         1 UNK         0.0767 
    103 H103       29.4361   27.5549   -1.6375 H         1 UNK         0.0767 
    104 H104       30.5107   25.2618    0.9157 H         1 UNK         0.3013 
    105 H105       27.9735   28.3322    1.1536 H         1 UNK         0.3121 
    106 H106       27.1895   31.0393    1.6681 H         1 UNK         0.0774 
    107 H107       29.9065   29.8179    0.8994 H         1 UNK         0.0815 
    108 H108       28.6699   30.3690   -0.2257 H         1 UNK         0.0815 
    109 H109       29.4980   31.5215    0.7994 H         1 UNK         0.0815 
    110 H110       28.9155   32.5285    2.7249 H         1 UNK         0.2987 
    111 H111       28.9889   32.0440    5.5525 H         1 UNK         0.0949 
    112 H112       28.7797   34.3300    4.5524 H         1 UNK         0.0806 
    113 H113       30.2011   34.2390    5.5756 H         1 UNK         0.0806 
    114 H114       30.3804   34.1782    3.8275 H         1 UNK         0.0806 
    115 H115       30.7918   31.8102    6.9048 H         1 UNK         0.3010 
    116 H116       32.6770   29.8778    6.1994 H         1 UNK         0.0829 
    117 H117       33.5726   30.2984    8.4983 H         1 UNK         0.0813 
    118 H118       31.8206   30.2242    8.5010 H         1 UNK         0.0813 
    119 H119       32.6396   31.7847    8.6015 H         1 UNK         0.0813 
    120 H120       32.9521   33.2238    5.5511 H         1 UNK         0.3038 
    121 H121       35.8329   33.4563    5.4770 H         1 UNK         0.0769 
    122 H122       34.3513   35.4530    5.5894 H         1 UNK         0.0811 
    123 H123       33.6366   35.0404    4.0294 H         1 UNK         0.0811 
    124 H124       35.3298   35.5016    4.1331 H         1 UNK         0.0811 
    125 H125       33.4331   32.0123    3.3551 H         1 UNK         0.3204 
    126 H126       35.5004   31.5351    1.2301 H         1 UNK         0.0748 
    127 H127       33.5741   31.4129   -0.3501 H         1 UNK         0.0771 
    128 H128       32.4601   31.8404    0.9432 H         1 UNK         0.0771 
    129 H129       33.6736   32.9975    0.4010 H         1 UNK         0.0771 
    130 H130       32.6530   30.2096    2.9821 H         1 UNK         0.2980 
    131 H131       32.9049   27.5783    1.8779 H         1 UNK         0.0545 
    132 H132       33.9297   25.7188    2.7241 H         1 UNK         0.3459 
    133 H133       34.8245   25.7358    4.2322 H         1 UNK         0.3459 
    134 H134       30.8087   28.8610    2.7972 H         1 UNK         0.0616 
    135 H135       31.3003   28.3336    4.3733 H         1 UNK         0.0616 
    136 H136       29.4007   26.9052    5.0387 H         1 UNK         0.0634 
    137 H137       30.7840   25.8457    5.2339 H         1 UNK         0.0634 
@<TRIPOS>BOND
     1    1    2 1    
     2    1   72 1    
     3    1   73 1    
     4    1   74 1    
     5    2    3 2    
     6    2    4 am   BACKBONE|DICT|INTERRES
     7    4    5 1    
     8    4   75 1    
     9    5    6 1    
    10    5   35 1    
    11    5   76 1    
    12    6    7 1    
    13    6   77 1    
    14    6   78 1    
    15    7    8 1    
    16    8    9 1    
    17    8   79 1    
    18    8   80 1    
    19    9   10 ar   
    20    9   14 ar   
    21   10   11 ar   
    22   10   81 1    
    23   11   12 ar   
    24   11   71 1    
    25   12   13 ar   
    26   12   82 1    
    27   13   14 ar   
    28   13   15 1    
    29   14   83 1    
    30   15   16 1    
    31   15   84 1    
    32   15   85 1    
    33   16   17 1    
    34   17   18 1    
    35   17   86 1    
    36   17   87 1    
    37   18   19 1    
    38   18   37 1    
    39   18   88 1    
    40   19   20 am   BACKBONE|DICT|INTERRES
    41   19   89 1    
    42   20   21 2    
    43   20   22 1    
    44   22   23 1    
    45   22   24 1    
    46   22   90 1    
    47   23   91 1    
    48   23   92 1    
    49   23   93 1    
    50   24   25 am   BACKBONE|DICT|INTERRES
    51   24   94 1    
    52   25   26 2    
    53   25   27 1    
    54   27   28 1    
    55   27   29 1    
    56   27   95 1    
    57   28   96 1    
    58   28   97 1    
    59   28   98 1    
    60   29   30 am   BACKBONE|DICT|INTERRES
    61   29   99 1    
    62   30   31 2    
    63   30   32 1    
    64   32   33 1    
    65   32   34 1    
    66   32  100 1    
    67   33  101 1    
    68   33  102 1    
    69   33  103 1    
    70   34   35 am   BACKBONE|DICT|INTERRES
    71   34  104 1    
    72   35   36 2    
    73   37   38 2    
    74   37   39 am   BACKBONE|DICT|INTERRES
    75   39   40 1    
    76   39  105 1    
    77   40   41 1    
    78   40   42 1    
    79   40  106 1    
    80   41  107 1    
    81   41  108 1    
    82   41  109 1    
    83   42   43 2    
    84   42   44 am   BACKBONE|DICT|INTERRES
    85   44   45 1    
    86   44  110 1    
    87   45   46 1    
    88   45   47 1    
    89   45  111 1    
    90   46  112 1    
    91   46  113 1    
    92   46  114 1    
    93   47   48 2    
    94   47   49 am   BACKBONE|DICT|INTERRES
    95   49   50 1    
    96   49  115 1    
    97   50   51 1    
    98   50   52 1    
    99   50  116 1    
   100   51  117 1    
   101   51  118 1    
   102   51  119 1    
   103   52   53 2    
   104   52   54 am   BACKBONE|DICT|INTERRES
   105   54   55 1    
   106   54  120 1    
   107   55   56 1    
   108   55   57 1    
   109   55  121 1    
   110   56  122 1    
   111   56  123 1    
   112   56  124 1    
   113   57   58 2    
   114   57   59 am   BACKBONE|DICT|INTERRES
   115   59   60 1    
   116   59  125 1    
   117   60   61 1    
   118   60   62 1    
   119   60  126 1    
   120   61  127 1    
   121   61  128 1    
   122   61  129 1    
   123   62   63 2    
   124   62   64 am   BACKBONE|DICT|INTERRES
   125   64   65 1    
   126   64  130 1    
   127   65   66 1    
   128   65   69 1    
   129   65  131 1    
   130   66   67 am   BACKBONE|DICT|INTERRES
   131   66   68 2    
   132   67  132 1    
   133   67  133 1    
   134   69   70 1    
   135   69  134 1    
   136   69  135 1    
   137   70   71 1    
   138   71  136 1    
   139   71  137 1    
@<TRIPOS>SUBSTRUCTURE
     1 UNK         1 GROUP             0       ****    0 ROOT    
