@<TRIPOS>MOLECULE
3R136
137   139    1
SMALL
USER_CHARGES


@<TRIPOS>ATOM
      1 CA         34.0714   20.5519    0.8670 C.3       0 UNK        -0.1979 
      2 C          33.0368   21.6028    1.2418 C.2       0 UNK         0.4864 
      3 O          33.3789   22.7787    1.3651 O.2       0 UNK        -0.5359 
      4 N          31.7778   21.1862    1.4302 N.am      1 UNK        -0.4318 
      5 CA         30.6393   22.0564    1.7346 C.3       1 UNK         0.0824 
      6 C6         29.4468   21.2178    2.2692 C.3       12 UNK        -0.0944 
      7 S7         27.9200   22.1483    2.6578 S.3       12 UNK        -0.2672 
      8 C8         28.0196   22.3758    4.4624 C.3       12 UNK         0.0333 
      9 C9         28.4653   23.7875    4.8094 C.ar      12 UNK        -0.0807 
     10 C10        29.8198   24.1218    4.7840 C.ar      12 UNK        -0.0894 
     11 C11        30.2350   25.4277    5.0520 C.ar      12 UNK        -0.0804 
     12 C12        29.2890   26.3953    5.4029 C.ar      12 UNK        -0.0824 
     13 C13        27.9317   26.0650    5.4676 C.ar      12 UNK        -0.0762 
     14 C14        27.5251   24.7626    5.1566 C.ar      12 UNK        -0.0782 
     15 C15        26.9043   27.0944    5.9163 C.3       12 UNK         0.0230 
     16 S16        25.7578   27.5558    4.5807 S.3       12 UNK        -0.2608 
     17 C17        26.7115   28.8015    3.6444 C.3       12 UNK        -0.0989 
     18 CA         27.1710   28.3226    2.2364 C.3       5 UNK         0.0716 
     19 N          26.1015   27.6988    1.4457 N.am      5 UNK        -0.4135 
     20 C          24.9630   28.2787    1.0302 C.2       4 UNK         0.5031 
     21 O          24.6602   29.4463    1.2832 O.2       4 UNK        -0.5229 
     22 CA         24.0015   27.4141    0.1812 C.3       4 UNK         0.0329 
     23 CB         23.1435   28.2622   -0.7825 C.3       4 UNK        -0.2001 
     24 N          24.6627   26.3212   -0.5473 N.am      4 UNK        -0.4303 
     25 C          25.6600   26.4437   -1.4343 C.2       3 UNK         0.5044 
     26 O          26.1414   27.5189   -1.7927 O.2       3 UNK        -0.5152 
     27 CA         26.2842   25.1377   -1.9488 C.3       3 UNK         0.0319 
     28 CB         26.0595   24.9833   -3.4616 C.3       3 UNK        -0.2001 
     29 N          27.7207   25.0912   -1.6608 N.am      3 UNK        -0.4354 
     30 C          28.2597   25.1724   -0.4363 C.2       2 UNK         0.4964 
     31 O          27.6020   25.2811    0.6022 O.2       2 UNK        -0.5047 
     32 CA         29.7918   25.1716   -0.3562 C.3       2 UNK         0.0288 
     33 CB         30.3187   26.5763   -0.0204 C.3       2 UNK        -0.2113 
     34 N          30.2343   24.2304    0.6690 N.am      2 UNK        -0.4145 
     35 C          30.2777   22.9026    0.4973 C.2       1 UNK         0.5006 
     36 O          30.0465   22.3386   -0.5763 O.2       1 UNK        -0.5103 
     37 C          27.9055   29.4434    1.4567 C.2       5 UNK         0.5055 
     38 O          28.4631   30.3457    2.0860 O.2       5 UNK        -0.5220 
     39 N          27.8951   29.3782    0.1118 N.am      6 UNK        -0.4450 
     40 CA         28.3377   30.4317   -0.8159 C.3       6 UNK         0.0367 
     41 CB         28.1527   29.9559   -2.2656 C.3       6 UNK        -0.1929 
     42 C          29.7651   30.9715   -0.6218 C.2       6 UNK         0.5070 
     43 O          30.0163   32.1260   -0.9684 O.2       6 UNK        -0.5237 
     44 N          30.6669   30.1733   -0.0369 N.am      7 UNK        -0.4739 
     45 CA         32.0326   30.5627    0.3349 C.3       7 UNK         0.0276 
     46 CB         32.8861   29.2877    0.4734 C.3       7 UNK        -0.1927 
     47 C          32.0766   31.4372    1.6090 C.2       7 UNK         0.5013 
     48 O          32.9007   31.1893    2.4894 O.2       7 UNK        -0.5193 
     49 N          31.1572   32.4101    1.7165 N.am      8 UNK        -0.4253 
     50 CA         30.9328   33.3310    2.8430 C.3       8 UNK         0.0242 
     51 CB         32.0576   34.3868    2.8873 C.3       8 UNK        -0.2000 
     52 C          30.7423   32.6251    4.2047 C.2       8 UNK         0.4948 
     53 O          31.0902   33.1941    5.2408 O.2       8 UNK        -0.5275 
     54 N          30.2411   31.3800    4.1692 N.am      9 UNK        -0.4246 
     55 CA         30.1814   30.4042    5.2637 C.3       9 UNK         0.0261 
     56 CB         29.1195   30.8179    6.3036 C.3       9 UNK        -0.1959 
     57 C          31.5484   30.0707    5.9094 C.2       9 UNK         0.5033 
     58 O          31.5747   29.5856    7.0418 O.2       9 UNK        -0.5390 
     59 N          32.6533   30.3100    5.1905 N.am      10 UNK        -0.4215 
     60 CA         34.0302   30.1223    5.6421 C.3       10 UNK         0.0240 
     61 CB         34.6505   31.4994    5.9466 C.3       10 UNK        -0.1982 
     62 C          34.7913   29.3444    4.5606 C.2       10 UNK         0.4970 
     63 O          35.7351   29.8649    3.9627 O.2       10 UNK        -0.4916 
     64 N          34.3182   28.1185    4.3100 N.am      11 UNK        -0.4279 
     65 CA         34.8021   27.1801    3.2880 C.3       11 UNK         0.1003 
     66 C          36.3240   26.8788    3.3830 C.2       11 UNK         0.5709 
     67 N          37.0087   26.7679    2.2525 N.am      11 UNK        -0.7358 
     68 O          36.8743   26.6984    4.4682 O.2       11 UNK        -0.4999 
     69 C69        33.9973   25.8551    3.3242 C.3       12 UNK        -0.0954 
     70 S70        32.1879   26.0847    3.2315 S.3       12 UNK        -0.2268 
     71 C71        31.7094   25.7750    4.9609 C.3       12 UNK         0.0203 
     72 H72        34.5167   20.7922   -0.0981 H         1 UNK         0.0888 
     73 H73        34.8660   20.5257    1.6122 H         1 UNK         0.0888 
     74 H74        33.6358   19.5551    0.8007 H         1 UNK         0.0888 
     75 H75        31.5554   20.2122    1.2831 H         1 UNK         0.3017 
     76 H76        30.9611   22.7365    2.5219 H         1 UNK         0.0873 
     77 H77        29.1730   20.4620    1.5308 H         1 UNK         0.0745 
     78 H78        29.7581   20.6578    3.1517 H         1 UNK         0.0745 
     79 H79        27.0355   22.1794    4.8901 H         1 UNK         0.0705 
     80 H80        28.6924   21.6457    4.9135 H         1 UNK         0.0705 
     81 H81        30.5548   23.3671    4.5481 H         1 UNK         0.1334 
     82 H82        29.6128   27.3963    5.6450 H         1 UNK         0.1417 
     83 H83        26.4740   24.5096    5.1917 H         1 UNK         0.1562 
     84 H84        27.3845   27.9870    6.3200 H         1 UNK         0.0748 
     85 H85        26.3237   26.6706    6.7369 H         1 UNK         0.0748 
     86 H86        27.5735   29.1061    4.2371 H         1 UNK         0.0940 
     87 H87        26.0879   29.6931    3.5563 H         1 UNK         0.0940 
     88 H88        27.9127   27.5373    2.3909 H         1 UNK         0.0703 
     89 H89        26.2858   26.7378    1.1744 H         1 UNK         0.3081 
     90 H90        23.3250   26.9385    0.8928 H         1 UNK         0.0719 
     91 H91        23.7607   28.8252   -1.4836 H         1 UNK         0.0809 
     92 H92        22.4618   27.6389   -1.3610 H         1 UNK         0.0809 
     93 H93        22.5340   28.9829   -0.2358 H         1 UNK         0.0809 
     94 H94        24.3653   25.3887   -0.2933 H         1 UNK         0.2990 
     95 H95        25.8163   24.2909   -1.4422 H         1 UNK         0.0690 
     96 H96        26.4584   24.0376   -3.8291 H         1 UNK         0.0788 
     97 H97        26.5321   25.7898   -4.0243 H         1 UNK         0.0788 
     98 H98        24.9953   25.0001   -3.7010 H         1 UNK         0.0788 
     99 H99        28.3342   25.0348   -2.4607 H         1 UNK         0.2993 
    100 H100       30.2079   24.8673   -1.3194 H         1 UNK         0.0949 
    101 H101       30.0132   27.2966   -0.7802 H         1 UNK         0.0767 
    102 H102       29.9470   26.9282    0.9426 H         1 UNK         0.0767 
    103 H103       31.4081   26.5865    0.0189 H         1 UNK         0.0767 
    104 H104       30.4105   24.6154    1.5862 H         1 UNK         0.3013 
    105 H105       27.3884   28.6128   -0.3185 H         1 UNK         0.3121 
    106 H106       27.6694   31.2805   -0.6575 H         1 UNK         0.0774 
    107 H107       28.6619   29.0092   -2.4493 H         1 UNK         0.0815 
    108 H108       28.5473   30.6835   -2.9765 H         1 UNK         0.0815 
    109 H109       27.0979   29.8250   -2.5054 H         1 UNK         0.0815 
    110 H110       30.3614   29.2594    0.2607 H         1 UNK         0.2987 
    111 H111       32.4571   31.1628   -0.4729 H         1 UNK         0.0949 
    112 H112       32.5281   28.6509    1.2834 H         1 UNK         0.0806 
    113 H113       32.8786   28.7015   -0.4456 H         1 UNK         0.0806 
    114 H114       33.9271   29.5341    0.6876 H         1 UNK         0.0806 
    115 H115       30.5307   32.5193    0.9248 H         1 UNK         0.3010 
    116 H116       29.9943   33.8476    2.6362 H         1 UNK         0.0829 
    117 H117       33.0183   33.9386    3.1445 H         1 UNK         0.0813 
    118 H118       32.1685   34.8898    1.9267 H         1 UNK         0.0813 
    119 H119       31.8473   35.1566    3.6309 H         1 UNK         0.0813 
    120 H120       29.8988   31.0412    3.2734 H         1 UNK         0.3038 
    121 H121       29.8475   29.4791    4.7962 H         1 UNK         0.0769 
    122 H122       29.4196   31.7133    6.8488 H         1 UNK         0.0811 
    123 H123       28.9585   30.0286    7.0388 H         1 UNK         0.0811 
    124 H124       28.1581   31.0201    5.8316 H         1 UNK         0.0811 
    125 H125       32.5652   30.6691    4.2394 H         1 UNK         0.3204 
    126 H126       34.0615   29.5215    6.5535 H         1 UNK         0.0748 
    127 H127       35.6850   31.3998    6.2777 H         1 UNK         0.0771 
    128 H128       34.6452   32.1450    5.0670 H         1 UNK         0.0771 
    129 H129       34.1026   32.0118    6.7377 H         1 UNK         0.0771 
    130 H130       33.5320   27.7944    4.8501 H         1 UNK         0.2980 
    131 H131       34.6178   27.6594    2.3255 H         1 UNK         0.0545 
    132 H132       37.9932   26.5562    2.2961 H         1 UNK         0.3459 
    133 H133       36.5638   26.8969    1.3572 H         1 UNK         0.3459 
    134 H134       34.2829   25.2260    2.4791 H         1 UNK         0.0616 
    135 H135       34.2467   25.2798    4.2175 H         1 UNK         0.0616 
    136 H136       32.2945   24.9503    5.3706 H         1 UNK         0.0634 
    137 H137       31.9381   26.6518    5.5684 H         1 UNK         0.0634 
@<TRIPOS>BOND
     1    1    2 1    
     2    1   72 1    
     3    1   73 1    
     4    1   74 1    
     5    2    3 2    
     6    2    4 am   BACKBONE|DICT|INTERRES
     7    4    5 1    
     8    4   75 1    
     9    5    6 1    
    10    5   35 1    
    11    5   76 1    
    12    6    7 1    
    13    6   77 1    
    14    6   78 1    
    15    7    8 1    
    16    8    9 1    
    17    8   79 1    
    18    8   80 1    
    19    9   10 ar   
    20    9   14 ar   
    21   10   11 ar   
    22   10   81 1    
    23   11   12 ar   
    24   11   71 1    
    25   12   13 ar   
    26   12   82 1    
    27   13   14 ar   
    28   13   15 1    
    29   14   83 1    
    30   15   16 1    
    31   15   84 1    
    32   15   85 1    
    33   16   17 1    
    34   17   18 1    
    35   17   86 1    
    36   17   87 1    
    37   18   19 1    
    38   18   37 1    
    39   18   88 1    
    40   19   20 am   BACKBONE|DICT|INTERRES
    41   19   89 1    
    42   20   21 2    
    43   20   22 1    
    44   22   23 1    
    45   22   24 1    
    46   22   90 1    
    47   23   91 1    
    48   23   92 1    
    49   23   93 1    
    50   24   25 am   BACKBONE|DICT|INTERRES
    51   24   94 1    
    52   25   26 2    
    53   25   27 1    
    54   27   28 1    
    55   27   29 1    
    56   27   95 1    
    57   28   96 1    
    58   28   97 1    
    59   28   98 1    
    60   29   30 am   BACKBONE|DICT|INTERRES
    61   29   99 1    
    62   30   31 2    
    63   30   32 1    
    64   32   33 1    
    65   32   34 1    
    66   32  100 1    
    67   33  101 1    
    68   33  102 1    
    69   33  103 1    
    70   34   35 am   BACKBONE|DICT|INTERRES
    71   34  104 1    
    72   35   36 2    
    73   37   38 2    
    74   37   39 am   BACKBONE|DICT|INTERRES
    75   39   40 1    
    76   39  105 1    
    77   40   41 1    
    78   40   42 1    
    79   40  106 1    
    80   41  107 1    
    81   41  108 1    
    82   41  109 1    
    83   42   43 2    
    84   42   44 am   BACKBONE|DICT|INTERRES
    85   44   45 1    
    86   44  110 1    
    87   45   46 1    
    88   45   47 1    
    89   45  111 1    
    90   46  112 1    
    91   46  113 1    
    92   46  114 1    
    93   47   48 2    
    94   47   49 am   BACKBONE|DICT|INTERRES
    95   49   50 1    
    96   49  115 1    
    97   50   51 1    
    98   50   52 1    
    99   50  116 1    
   100   51  117 1    
   101   51  118 1    
   102   51  119 1    
   103   52   53 2    
   104   52   54 am   BACKBONE|DICT|INTERRES
   105   54   55 1    
   106   54  120 1    
   107   55   56 1    
   108   55   57 1    
   109   55  121 1    
   110   56  122 1    
   111   56  123 1    
   112   56  124 1    
   113   57   58 2    
   114   57   59 am   BACKBONE|DICT|INTERRES
   115   59   60 1    
   116   59  125 1    
   117   60   61 1    
   118   60   62 1    
   119   60  126 1    
   120   61  127 1    
   121   61  128 1    
   122   61  129 1    
   123   62   63 2    
   124   62   64 am   BACKBONE|DICT|INTERRES
   125   64   65 1    
   126   64  130 1    
   127   65   66 1    
   128   65   69 1    
   129   65  131 1    
   130   66   67 am   BACKBONE|DICT|INTERRES
   131   66   68 2    
   132   67  132 1    
   133   67  133 1    
   134   69   70 1    
   135   69  134 1    
   136   69  135 1    
   137   70   71 1    
   138   71  136 1    
   139   71  137 1    
@<TRIPOS>SUBSTRUCTURE
     1 UNK         1 GROUP             0       ****    0 ROOT    
