@<TRIPOS>MOLECULE
3R136
137   139    1
SMALL
USER_CHARGES


@<TRIPOS>ATOM
      1 CA         28.1941   24.7986    3.8413 C.3       0 UNK        -0.1979 
      2 C          27.9432   23.7329    2.7857 C.2       0 UNK         0.4864 
      3 O          26.9152   23.0556    2.8357 O.2       0 UNK        -0.5359 
      4 N          28.8826   23.5703    1.8461 N.am      1 UNK        -0.4318 
      5 CA         28.8366   22.5706    0.7719 C.3       1 UNK         0.0824 
      6 C6         30.2537   22.0940    0.3344 C.3       12 UNK        -0.0944 
      7 S7         31.4148   21.7969    1.7125 S.3       12 UNK        -0.2672 
      8 C8         32.6745   23.0781    1.4038 C.3       12 UNK         0.0333 
      9 C9         32.1418   24.4842    1.6476 C.ar      12 UNK        -0.0807 
     10 C10        32.1576   25.0232    2.9375 C.ar      12 UNK        -0.0894 
     11 C11        31.7110   26.3279    3.1675 C.ar      12 UNK        -0.0804 
     12 C12        31.2181   27.0830    2.0999 C.ar      12 UNK        -0.0824 
     13 C13        31.1779   26.5498    0.8080 C.ar      12 UNK        -0.0762 
     14 C14        31.6573   25.2564    0.5853 C.ar      12 UNK        -0.0782 
     15 C15        30.6250   27.3751   -0.3480 C.3       12 UNK         0.0230 
     16 S16        28.8611   27.0277   -0.6555 S.3       12 UNK        -0.2608 
     17 C17        28.1413   27.5718    0.9241 C.3       12 UNK        -0.0989 
     18 CA         26.6036   27.7429    0.9102 C.3       5 UNK         0.0716 
     19 N          25.9024   26.4772    0.6446 N.am      5 UNK        -0.4135 
     20 C          24.5723   26.3013    0.6817 C.2       4 UNK         0.5031 
     21 O          23.7595   27.2156    0.8419 O.2       4 UNK        -0.5229 
     22 CA         24.0721   24.8572    0.4979 C.3       4 UNK         0.0329 
     23 CB         22.6293   24.6518    1.0072 C.3       4 UNK        -0.2001 
     24 N          24.2036   24.3988   -0.8869 N.am      4 UNK        -0.4303 
     25 C          23.6584   24.9175   -1.9978 C.2       3 UNK         0.5044 
     26 O          22.8893   25.8798   -2.0046 O.2       3 UNK        -0.5152 
     27 CA         24.0479   24.2444   -3.3331 C.3       3 UNK         0.0319 
     28 CB         23.6846   25.1035   -4.5593 C.3       3 UNK        -0.2001 
     29 N          25.4764   23.9212   -3.3917 N.am      3 UNK        -0.4354 
     30 C          26.0526   22.8419   -2.8478 C.2       2 UNK         0.4964 
     31 O          25.4186   21.9487   -2.2830 O.2       2 UNK        -0.5047 
     32 CA         27.5896   22.7560   -2.8944 C.3       2 UNK         0.0288 
     33 CB         28.2804   24.0210   -3.4574 C.3       2 UNK        -0.2113 
     34 N          28.1576   22.4145   -1.5841 N.am      2 UNK        -0.4145 
     35 C          28.0110   23.0887   -0.4304 C.2       1 UNK         0.5006 
     36 O          27.2869   24.0817   -0.3059 O.2       1 UNK        -0.5103 
     37 C          26.1850   28.3664    2.2601 C.2       5 UNK         0.5055 
     38 O          26.1177   27.6532    3.2641 O.2       5 UNK        -0.5220 
     39 N          25.9640   29.6876    2.2715 N.am      6 UNK        -0.4450 
     40 CA         25.6847   30.4522    3.4908 C.3       6 UNK         0.0367 
     41 CB         25.0933   31.8215    3.1178 C.3       6 UNK        -0.1929 
     42 C          26.9349   30.6245    4.3715 C.2       6 UNK         0.5070 
     43 O          26.8258   30.5687    5.5965 O.2       6 UNK        -0.5237 
     44 N          28.0922   30.8225    3.7294 N.am      7 UNK        -0.4739 
     45 CA         29.4107   31.0175    4.3269 C.3       7 UNK         0.0276 
     46 CB         29.4674   32.3584    5.0927 C.3       7 UNK        -0.1927 
     47 C          30.4572   30.9889    3.2029 C.2       7 UNK         0.5013 
     48 O          30.0937   30.9336    2.0241 O.2       7 UNK        -0.5193 
     49 N          31.7324   31.0559    3.5905 N.am      8 UNK        -0.4253 
     50 CA         32.8920   31.2532    2.7273 C.3       8 UNK         0.0242 
     51 CB         33.3139   29.9303    2.0631 C.3       8 UNK        -0.2000 
     52 C          34.0159   31.8224    3.5987 C.2       8 UNK         0.4948 
     53 O          33.9654   31.6746    4.8238 O.2       8 UNK        -0.5275 
     54 N          35.0255   32.4324    2.9638 N.am      9 UNK        -0.4246 
     55 CA         36.1717   33.0660    3.6312 C.3       9 UNK         0.0261 
     56 CB         37.0520   33.7648    2.5820 C.3       9 UNK        -0.1959 
     57 C          37.0169   32.1062    4.4902 C.2       9 UNK         0.5033 
     58 O          37.5740   32.5337    5.5019 O.2       9 UNK        -0.5390 
     59 N          37.0795   30.8303    4.0861 N.am      10 UNK        -0.4215 
     60 CA         37.7248   29.7523    4.8384 C.3       10 UNK         0.0240 
     61 CB         38.0336   28.5894    3.8806 C.3       10 UNK        -0.1982 
     62 C          36.8815   29.2525    6.0268 C.2       10 UNK         0.4970 
     63 O          37.4519   28.6995    6.9682 O.2       10 UNK        -0.4916 
     64 N          35.5560   29.4269    5.9568 N.am      11 UNK        -0.4279 
     65 CA         34.5943   28.9778    6.9739 C.3       11 UNK         0.1003 
     66 C          34.3432   30.0566    8.0590 C.2       11 UNK         0.5709 
     67 N          34.3053   31.3351    7.7029 N.am      11 UNK        -0.7358 
     68 O          34.1886   29.7306    9.2335 O.2       11 UNK        -0.4999 
     69 C69        33.2539   28.5188    6.3409 C.3       12 UNK        -0.0954 
     70 S70        33.4871   27.2389    5.0654 S.3       12 UNK        -0.2268 
     71 C71        31.7677   26.9257    4.5652 C.3       12 UNK         0.0203 
     72 H72        28.4140   24.3307    4.8002 H         1 UNK         0.0888 
     73 H73        29.0301   25.4445    3.5788 H         1 UNK         0.0888 
     74 H74        27.3094   25.4217    3.9627 H         1 UNK         0.0888 
     75 H75        29.7043   24.1591    1.8486 H         1 UNK         0.3017 
     76 H76        28.3068   21.6945    1.1523 H         1 UNK         0.0873 
     77 H77        30.7038   22.7961   -0.3673 H         1 UNK         0.0745 
     78 H78        30.1752   21.1526   -0.2119 H         1 UNK         0.0745 
     79 H79        33.0522   22.9816    0.3846 H         1 UNK         0.0705 
     80 H80        33.5277   22.8931    2.0583 H         1 UNK         0.0705 
     81 H81        32.5392   24.4355    3.7616 H         1 UNK         0.1334 
     82 H82        30.8633   28.0892    2.2734 H         1 UNK         0.1417 
     83 H83        31.6494   24.8557   -0.4188 H         1 UNK         0.1562 
     84 H84        31.1897   27.1629   -1.2571 H         1 UNK         0.0748 
     85 H85        30.7553   28.4410   -0.1527 H         1 UNK         0.0748 
     86 H86        28.6236   28.5147    1.1926 H         1 UNK         0.0940 
     87 H87        28.4280   26.8512    1.6909 H         1 UNK         0.0940 
     88 H88        26.3327   28.4319    0.1078 H         1 UNK         0.0703 
     89 H89        26.4897   25.6743    0.4288 H         1 UNK         0.3081 
     90 H90        24.7235   24.2189    1.0979 H         1 UNK         0.0719 
     91 H91        22.5449   24.9378    2.0563 H         1 UNK         0.0809 
     92 H92        21.9086   25.2508    0.4495 H         1 UNK         0.0809 
     93 H93        22.3274   23.6074    0.9302 H         1 UNK         0.0809 
     94 H94        24.8388   23.6205   -1.0194 H         1 UNK         0.2990 
     95 H95        23.4731   23.3181   -3.3986 H         1 UNK         0.0690 
     96 H96        23.9472   24.5991   -5.4894 H         1 UNK         0.0788 
     97 H97        24.1963   26.0666   -4.5426 H         1 UNK         0.0788 
     98 H98        22.6127   25.3031   -4.5953 H         1 UNK         0.0788 
     99 H99        26.0788   24.6259   -3.7925 H         1 UNK         0.2993 
    100 H100       27.8231   21.9247   -3.5614 H         1 UNK         0.0949 
    101 H101       28.0600   24.9085   -2.8622 H         1 UNK         0.0767 
    102 H102       29.3638   23.8999   -3.4698 H         1 UNK         0.0767 
    103 H103       27.9751   24.2198   -4.4855 H         1 UNK         0.0767 
    104 H104       28.7282   21.5812   -1.5729 H         1 UNK         0.3013 
    105 H105       26.0279   30.2080    1.4081 H         1 UNK         0.3121 
    106 H106       24.9381   29.9093    4.0752 H         1 UNK         0.0774 
    107 H107       24.8588   32.3997    4.0127 H         1 UNK         0.0815 
    108 H108       25.7862   32.4149    2.5199 H         1 UNK         0.0815 
    109 H109       24.1674   31.7133    2.5525 H         1 UNK         0.0815 
    110 H110       28.1090   30.8307    2.7163 H         1 UNK         0.2987 
    111 H111       29.6135   30.1892    5.0091 H         1 UNK         0.0949 
    112 H112       28.7473   32.3894    5.9100 H         1 UNK         0.0806 
    113 H113       30.4490   32.5251    5.5377 H         1 UNK         0.0806 
    114 H114       29.2596   33.2034    4.4350 H         1 UNK         0.0806 
    115 H115       31.9591   31.1385    4.5747 H         1 UNK         0.3010 
    116 H116       32.6449   31.9900    1.9599 H         1 UNK         0.0829 
    117 H117       32.5459   29.5731    1.3782 H         1 UNK         0.0813 
    118 H118       34.2257   30.0516    1.4776 H         1 UNK         0.0813 
    119 H119       33.4993   29.1486    2.7993 H         1 UNK         0.0813 
    120 H120       34.9932   32.5053    1.9565 H         1 UNK         0.3038 
    121 H121       35.7736   33.8294    4.3032 H         1 UNK         0.0769 
    122 H122       37.8991   34.2648    3.0541 H         1 UNK         0.0811 
    123 H123       36.4933   34.5262    2.0374 H         1 UNK         0.0811 
    124 H124       37.4549   33.0580    1.8556 H         1 UNK         0.0811 
    125 H125       36.6094   30.5758    3.2298 H         1 UNK         0.3204 
    126 H126       38.6706   30.1244    5.2387 H         1 UNK         0.0748 
    127 H127       38.5468   27.7803    4.4024 H         1 UNK         0.0771 
    128 H128       37.1246   28.1708    3.4460 H         1 UNK         0.0771 
    129 H129       38.6822   28.9081    3.0643 H         1 UNK         0.0771 
    130 H130       35.1645   29.9672    5.1981 H         1 UNK         0.2980 
    131 H131       35.0141   28.1097    7.4862 H         1 UNK         0.0545 
    132 H132       34.1495   32.0426    8.4025 H         1 UNK         0.3459 
    133 H133       34.3574   31.5894    6.7216 H         1 UNK         0.3459 
    134 H134       32.5871   28.1198    7.1075 H         1 UNK         0.0616 
    135 H135       32.7359   29.3646    5.8861 H         1 UNK         0.0616 
    136 H136       31.2019   27.8580    4.6023 H         1 UNK         0.0634 
    137 H137       31.2997   26.2473    5.2798 H         1 UNK         0.0634 
@<TRIPOS>BOND
     1    1    2 1    
     2    1   72 1    
     3    1   73 1    
     4    1   74 1    
     5    2    3 2    
     6    2    4 am   BACKBONE|DICT|INTERRES
     7    4    5 1    
     8    4   75 1    
     9    5    6 1    
    10    5   35 1    
    11    5   76 1    
    12    6    7 1    
    13    6   77 1    
    14    6   78 1    
    15    7    8 1    
    16    8    9 1    
    17    8   79 1    
    18    8   80 1    
    19    9   10 ar   
    20    9   14 ar   
    21   10   11 ar   
    22   10   81 1    
    23   11   12 ar   
    24   11   71 1    
    25   12   13 ar   
    26   12   82 1    
    27   13   14 ar   
    28   13   15 1    
    29   14   83 1    
    30   15   16 1    
    31   15   84 1    
    32   15   85 1    
    33   16   17 1    
    34   17   18 1    
    35   17   86 1    
    36   17   87 1    
    37   18   19 1    
    38   18   37 1    
    39   18   88 1    
    40   19   20 am   BACKBONE|DICT|INTERRES
    41   19   89 1    
    42   20   21 2    
    43   20   22 1    
    44   22   23 1    
    45   22   24 1    
    46   22   90 1    
    47   23   91 1    
    48   23   92 1    
    49   23   93 1    
    50   24   25 am   BACKBONE|DICT|INTERRES
    51   24   94 1    
    52   25   26 2    
    53   25   27 1    
    54   27   28 1    
    55   27   29 1    
    56   27   95 1    
    57   28   96 1    
    58   28   97 1    
    59   28   98 1    
    60   29   30 am   BACKBONE|DICT|INTERRES
    61   29   99 1    
    62   30   31 2    
    63   30   32 1    
    64   32   33 1    
    65   32   34 1    
    66   32  100 1    
    67   33  101 1    
    68   33  102 1    
    69   33  103 1    
    70   34   35 am   BACKBONE|DICT|INTERRES
    71   34  104 1    
    72   35   36 2    
    73   37   38 2    
    74   37   39 am   BACKBONE|DICT|INTERRES
    75   39   40 1    
    76   39  105 1    
    77   40   41 1    
    78   40   42 1    
    79   40  106 1    
    80   41  107 1    
    81   41  108 1    
    82   41  109 1    
    83   42   43 2    
    84   42   44 am   BACKBONE|DICT|INTERRES
    85   44   45 1    
    86   44  110 1    
    87   45   46 1    
    88   45   47 1    
    89   45  111 1    
    90   46  112 1    
    91   46  113 1    
    92   46  114 1    
    93   47   48 2    
    94   47   49 am   BACKBONE|DICT|INTERRES
    95   49   50 1    
    96   49  115 1    
    97   50   51 1    
    98   50   52 1    
    99   50  116 1    
   100   51  117 1    
   101   51  118 1    
   102   51  119 1    
   103   52   53 2    
   104   52   54 am   BACKBONE|DICT|INTERRES
   105   54   55 1    
   106   54  120 1    
   107   55   56 1    
   108   55   57 1    
   109   55  121 1    
   110   56  122 1    
   111   56  123 1    
   112   56  124 1    
   113   57   58 2    
   114   57   59 am   BACKBONE|DICT|INTERRES
   115   59   60 1    
   116   59  125 1    
   117   60   61 1    
   118   60   62 1    
   119   60  126 1    
   120   61  127 1    
   121   61  128 1    
   122   61  129 1    
   123   62   63 2    
   124   62   64 am   BACKBONE|DICT|INTERRES
   125   64   65 1    
   126   64  130 1    
   127   65   66 1    
   128   65   69 1    
   129   65  131 1    
   130   66   67 am   BACKBONE|DICT|INTERRES
   131   66   68 2    
   132   67  132 1    
   133   67  133 1    
   134   69   70 1    
   135   69  134 1    
   136   69  135 1    
   137   70   71 1    
   138   71  136 1    
   139   71  137 1    
@<TRIPOS>SUBSTRUCTURE
     1 UNK         1 GROUP             0       ****    0 ROOT    
