@<TRIPOS>MOLECULE
3R136
137   139    1
SMALL
USER_CHARGES


@<TRIPOS>ATOM
      1 CA         25.3358   25.9053    4.8438 C.3       0 UNK        -0.1979 
      2 C          25.8886   24.4905    4.7642 C.2       0 UNK         0.4864 
      3 O          25.8063   23.7455    5.7418 O.2       0 UNK        -0.5359 
      4 N          26.4379   24.1170    3.6050 N.am      1 UNK        -0.4318 
      5 CA         26.9682   22.7786    3.3200 C.3       1 UNK         0.0824 
      6 C6         28.3601   22.4816    3.9427 C.3       12 UNK        -0.0944 
      7 S7         29.5838   23.8112    3.7129 S.3       12 UNK        -0.2672 
      8 C8         30.6772   23.1334    2.4363 C.3       12 UNK         0.0333 
      9 C9         31.6495   24.1976    1.9500 C.ar      12 UNK        -0.0807 
     10 C10        32.7645   24.5416    2.7201 C.ar      12 UNK        -0.0894 
     11 C11        33.6807   25.4984    2.2707 C.ar      12 UNK        -0.0804 
     12 C12        33.4651   26.1080    1.0273 C.ar      12 UNK        -0.0824 
     13 C13        32.3472   25.7881    0.2520 C.ar      12 UNK        -0.0762 
     14 C14        31.4435   24.8289    0.7214 C.ar      12 UNK        -0.0782 
     15 C15        32.1774   26.4388   -1.1183 C.3       12 UNK         0.0230 
     16 S16        30.4551   26.8552   -1.5430 S.3       12 UNK        -0.2608 
     17 C17        30.1275   28.2952   -0.4673 C.3       12 UNK        -0.0989 
     18 CA         28.6849   28.3529    0.1180 C.3       5 UNK         0.0716 
     19 N          27.6363   28.0620   -0.8621 N.am      5 UNK        -0.4135 
     20 C          27.2893   28.8981   -1.8494 C.2       4 UNK         0.5031 
     21 O          27.7517   30.0354   -1.9590 O.2       4 UNK        -0.5229 
     22 CA         26.2883   28.4184   -2.9157 C.3       4 UNK         0.0329 
     23 CB         26.9613   28.3920   -4.3004 C.3       4 UNK        -0.2001 
     24 N          25.7329   27.0885   -2.6526 N.am      4 UNK        -0.4303 
     25 C          24.4449   26.8355   -2.3804 C.2       3 UNK         0.5044 
     26 O          23.5881   27.7073   -2.2285 O.2       3 UNK        -0.5152 
     27 CA         24.0287   25.3547   -2.2827 C.3       3 UNK         0.0319 
     28 CB         23.4497   24.8726   -3.6230 C.3       3 UNK        -0.2001 
     29 N          25.1232   24.4644   -1.8830 N.am      3 UNK        -0.4354 
     30 C          25.6554   24.4471   -0.6552 C.2       2 UNK         0.4964 
     31 O          25.2455   25.1525    0.2706 O.2       2 UNK        -0.5047 
     32 CA         26.8512   23.5055   -0.4427 C.3       2 UNK         0.0288 
     33 CB         28.0745   23.9770   -1.2441 C.3       2 UNK        -0.2113 
     34 N          27.1942   23.4952    0.9778 N.am      2 UNK        -0.4145 
     35 C          26.9032   22.4884    1.8127 C.2       1 UNK         0.5006 
     36 O          26.5340   21.3741    1.4362 O.2       1 UNK        -0.5103 
     37 C          28.5020   27.4932    1.3789 C.2       5 UNK         0.5055 
     38 O          27.8703   26.4329    1.3351 O.2       5 UNK        -0.5220 
     39 N          29.0464   28.0036    2.4868 N.am      6 UNK        -0.4450 
     40 CA         28.9850   27.4356    3.8259 C.3       6 UNK         0.0367 
     41 CB         28.0397   28.2898    4.6878 C.3       6 UNK        -0.1929 
     42 C          30.3967   27.4567    4.4190 C.2       6 UNK         0.5070 
     43 O          31.2040   28.3081    4.0361 O.2       6 UNK        -0.5237 
     44 N          30.6517   26.5688    5.3866 N.am      7 UNK        -0.4739 
     45 CA         31.9157   26.4381    6.1174 C.3       7 UNK         0.0276 
     46 CB         31.9912   25.0272    6.7297 C.3       7 UNK        -0.1927 
     47 C          32.1053   27.5554    7.1644 C.2       7 UNK         0.5013 
     48 O          32.2221   27.2818    8.3605 O.2       7 UNK        -0.5193 
     49 N          32.1154   28.7985    6.6824 N.am      8 UNK        -0.4253 
     50 CA         32.3208   30.0353    7.4275 C.3       8 UNK         0.0242 
     51 CB         30.9793   30.5200    8.0181 C.3       8 UNK        -0.2000 
     52 C          32.9892   31.0384    6.4745 C.2       8 UNK         0.4948 
     53 O          33.7736   30.6214    5.6202 O.2       8 UNK        -0.5275 
     54 N          32.6527   32.3321    6.5859 N.am      9 UNK        -0.4246 
     55 CA         33.1538   33.4087    5.7174 C.3       9 UNK         0.0261 
     56 CB         32.5809   34.7549    6.1885 C.3       9 UNK        -0.1959 
     57 C          32.8639   33.1945    4.2181 C.2       9 UNK         0.5033 
     58 O          33.6623   33.6146    3.3795 O.2       9 UNK        -0.5390 
     59 N          31.7612   32.4955    3.9119 N.am      10 UNK        -0.4215 
     60 CA         31.3671   32.0646    2.5679 C.3       10 UNK         0.0240 
     61 CB         29.9424   31.4919    2.6272 C.3       10 UNK        -0.1982 
     62 C          32.3363   31.0628    1.9047 C.2       10 UNK         0.4970 
     63 O          32.2789   30.9113    0.6841 O.2       10 UNK        -0.4916 
     64 N          33.2115   30.4180    2.6896 N.am      11 UNK        -0.4279 
     65 CA         34.3373   29.6146    2.1934 C.3       11 UNK         0.1003 
     66 C          35.4881   30.4773    1.5857 C.2       11 UNK         0.5709 
     67 N          35.5587   31.7805    1.8412 N.am      11 UNK        -0.7358 
     68 O          36.3188   29.9650    0.8398 O.2       11 UNK        -0.4999 
     69 C69        34.8374   28.6406    3.2973 C.3       12 UNK        -0.0954 
     70 S70        35.8812   27.2712    2.6881 S.3       12 UNK        -0.2268 
     71 C71        34.9096   25.7896    3.1360 C.3       12 UNK         0.0203 
     72 H72        24.2618   25.8775    5.0256 H         1 UNK         0.0888 
     73 H73        25.8053   26.4466    5.6642 H         1 UNK         0.0888 
     74 H74        25.5084   26.4607    3.9218 H         1 UNK         0.0888 
     75 H75        26.4380   24.7644    2.8276 H         1 UNK         0.3017 
     76 H76        26.2699   22.0662    3.7659 H         1 UNK         0.0873 
     77 H77        28.7622   21.5346    3.5774 H         1 UNK         0.0745 
     78 H78        28.2419   22.3468    5.0188 H         1 UNK         0.0745 
     79 H79        31.2270   22.2827    2.8417 H         1 UNK         0.0705 
     80 H80        30.0786   22.7535    1.6069 H         1 UNK         0.0705 
     81 H81        32.9238   24.0507    3.6704 H         1 UNK         0.1334 
     82 H82        34.1784   26.8195    0.6391 H         1 UNK         0.1417 
     83 H83        30.5850   24.5621    0.1230 H         1 UNK         0.1562 
     84 H84        32.5602   25.7497   -1.8720 H         1 UNK         0.0748 
     85 H85        32.7809   27.3449   -1.1949 H         1 UNK         0.0748 
     86 H86        30.3032   29.1885   -1.0688 H         1 UNK         0.0940 
     87 H87        30.8753   28.3403    0.3272 H         1 UNK         0.0940 
     88 H88        28.5135   29.3787    0.4513 H         1 UNK         0.0703 
     89 H89        27.1817   27.1662   -0.7500 H         1 UNK         0.3081 
     90 H90        25.4907   29.1634   -2.9471 H         1 UNK         0.0719 
     91 H91        27.7977   27.6924   -4.3292 H         1 UNK         0.0809 
     92 H92        26.2548   28.1040   -5.0792 H         1 UNK         0.0809 
     93 H93        27.3503   29.3754   -4.5684 H         1 UNK         0.0809 
     94 H94        26.3592   26.3052   -2.7677 H         1 UNK         0.2990 
     95 H95        23.2408   25.2859   -1.5292 H         1 UNK         0.0690 
     96 H96        23.0765   23.8509   -3.5502 H         1 UNK         0.0788 
     97 H97        24.1933   24.9042   -4.4205 H         1 UNK         0.0788 
     98 H98        22.6124   25.4993   -3.9340 H         1 UNK         0.0788 
     99 H99        25.4961   23.8497   -2.5931 H         1 UNK         0.2993 
    100 H100       26.5654   22.5090   -0.7867 H         1 UNK         0.0949 
    101 H101       28.9275   23.3185   -1.0810 H         1 UNK         0.0767 
    102 H102       27.8770   23.9828   -2.3164 H         1 UNK         0.0767 
    103 H103       28.3683   24.9856   -0.9580 H         1 UNK         0.0767 
    104 H104       27.4896   24.3942    1.3458 H         1 UNK         0.3013 
    105 H105       29.6580   28.8048    2.4144 H         1 UNK         0.3121 
    106 H106       28.6133   26.4125    3.7894 H         1 UNK         0.0774 
    107 H107       27.9225   27.8596    5.6830 H         1 UNK         0.0815 
    108 H108       28.4148   29.3058    4.8171 H         1 UNK         0.0815 
    109 H109       27.0479   28.3593    4.2419 H         1 UNK         0.0815 
    110 H110       29.9238   25.9174    5.6435 H         1 UNK         0.2987 
    111 H111       32.7333   26.5333    5.4011 H         1 UNK         0.0949 
    112 H112       31.1975   24.8607    7.4590 H         1 UNK         0.0806 
    113 H113       31.9078   24.2565    5.9634 H         1 UNK         0.0806 
    114 H114       32.9427   24.8731    7.2402 H         1 UNK         0.0806 
    115 H115       32.0257   28.9031    5.6739 H         1 UNK         0.3010 
    116 H116       33.0247   29.8497    8.2412 H         1 UNK         0.0829 
    117 H117       30.5225   29.7476    8.6373 H         1 UNK         0.0813 
    118 H118       31.1140   31.3927    8.6579 H         1 UNK         0.0813 
    119 H119       30.2627   30.7799    7.2377 H         1 UNK         0.0813 
    120 H120       32.0029   32.5996    7.3115 H         1 UNK         0.3038 
    121 H121       34.2393   33.4400    5.8327 H         1 UNK         0.0769 
    122 H122       31.4920   34.7751    6.1290 H         1 UNK         0.0811 
    123 H123       32.9558   35.5747    5.5737 H         1 UNK         0.0811 
    124 H124       32.8662   34.9701    7.2185 H         1 UNK         0.0811 
    125 H125       31.1707   32.1951    4.6730 H         1 UNK         0.3204 
    126 H126       31.3496   32.9521    1.9318 H         1 UNK         0.0748 
    127 H127       29.6104   31.1670    1.6407 H         1 UNK         0.0771 
    128 H128       29.8829   30.6380    3.3009 H         1 UNK         0.0771 
    129 H129       29.2294   32.2406    2.9732 H         1 UNK         0.0771 
    130 H130       33.2076   30.5852    3.6898 H         1 UNK         0.2980 
    131 H131       33.9474   29.0087    1.3749 H         1 UNK         0.0545 
    132 H132       34.8703   32.2435    2.4232 H         1 UNK         0.3459 
    133 H133       36.3033   32.3184    1.4277 H         1 UNK         0.3459 
    134 H134       33.9810   28.2076    3.8165 H         1 UNK         0.0616 
    135 H135       35.4001   29.1837    4.0582 H         1 UNK         0.0616 
    136 H136       34.6192   25.8671    4.1839 H         1 UNK         0.0634 
    137 H137       35.5743   24.9276    3.0696 H         1 UNK         0.0634 
@<TRIPOS>BOND
     1    1    2 1    
     2    1   72 1    
     3    1   73 1    
     4    1   74 1    
     5    2    3 2    
     6    2    4 am   BACKBONE|DICT|INTERRES
     7    4    5 1    
     8    4   75 1    
     9    5    6 1    
    10    5   35 1    
    11    5   76 1    
    12    6    7 1    
    13    6   77 1    
    14    6   78 1    
    15    7    8 1    
    16    8    9 1    
    17    8   79 1    
    18    8   80 1    
    19    9   10 ar   
    20    9   14 ar   
    21   10   11 ar   
    22   10   81 1    
    23   11   12 ar   
    24   11   71 1    
    25   12   13 ar   
    26   12   82 1    
    27   13   14 ar   
    28   13   15 1    
    29   14   83 1    
    30   15   16 1    
    31   15   84 1    
    32   15   85 1    
    33   16   17 1    
    34   17   18 1    
    35   17   86 1    
    36   17   87 1    
    37   18   19 1    
    38   18   37 1    
    39   18   88 1    
    40   19   20 am   BACKBONE|DICT|INTERRES
    41   19   89 1    
    42   20   21 2    
    43   20   22 1    
    44   22   23 1    
    45   22   24 1    
    46   22   90 1    
    47   23   91 1    
    48   23   92 1    
    49   23   93 1    
    50   24   25 am   BACKBONE|DICT|INTERRES
    51   24   94 1    
    52   25   26 2    
    53   25   27 1    
    54   27   28 1    
    55   27   29 1    
    56   27   95 1    
    57   28   96 1    
    58   28   97 1    
    59   28   98 1    
    60   29   30 am   BACKBONE|DICT|INTERRES
    61   29   99 1    
    62   30   31 2    
    63   30   32 1    
    64   32   33 1    
    65   32   34 1    
    66   32  100 1    
    67   33  101 1    
    68   33  102 1    
    69   33  103 1    
    70   34   35 am   BACKBONE|DICT|INTERRES
    71   34  104 1    
    72   35   36 2    
    73   37   38 2    
    74   37   39 am   BACKBONE|DICT|INTERRES
    75   39   40 1    
    76   39  105 1    
    77   40   41 1    
    78   40   42 1    
    79   40  106 1    
    80   41  107 1    
    81   41  108 1    
    82   41  109 1    
    83   42   43 2    
    84   42   44 am   BACKBONE|DICT|INTERRES
    85   44   45 1    
    86   44  110 1    
    87   45   46 1    
    88   45   47 1    
    89   45  111 1    
    90   46  112 1    
    91   46  113 1    
    92   46  114 1    
    93   47   48 2    
    94   47   49 am   BACKBONE|DICT|INTERRES
    95   49   50 1    
    96   49  115 1    
    97   50   51 1    
    98   50   52 1    
    99   50  116 1    
   100   51  117 1    
   101   51  118 1    
   102   51  119 1    
   103   52   53 2    
   104   52   54 am   BACKBONE|DICT|INTERRES
   105   54   55 1    
   106   54  120 1    
   107   55   56 1    
   108   55   57 1    
   109   55  121 1    
   110   56  122 1    
   111   56  123 1    
   112   56  124 1    
   113   57   58 2    
   114   57   59 am   BACKBONE|DICT|INTERRES
   115   59   60 1    
   116   59  125 1    
   117   60   61 1    
   118   60   62 1    
   119   60  126 1    
   120   61  127 1    
   121   61  128 1    
   122   61  129 1    
   123   62   63 2    
   124   62   64 am   BACKBONE|DICT|INTERRES
   125   64   65 1    
   126   64  130 1    
   127   65   66 1    
   128   65   69 1    
   129   65  131 1    
   130   66   67 am   BACKBONE|DICT|INTERRES
   131   66   68 2    
   132   67  132 1    
   133   67  133 1    
   134   69   70 1    
   135   69  134 1    
   136   69  135 1    
   137   70   71 1    
   138   71  136 1    
   139   71  137 1    
@<TRIPOS>SUBSTRUCTURE
     1 UNK         1 GROUP             0       ****    0 ROOT    
