@<TRIPOS>MOLECULE
3R136
137   139    1
SMALL
USER_CHARGES


@<TRIPOS>ATOM
      1 CA         28.1189   18.3124    0.3473 C.3       0 UNK        -0.1979 
      2 C          28.9372   19.3829   -0.3600 C.2       0 UNK         0.4864 
      3 O          29.3687   19.1735   -1.4950 O.2       0 UNK        -0.5359 
      4 N          29.1581   20.5243    0.3038 N.am      1 UNK        -0.4318 
      5 CA         29.8707   21.6820   -0.2427 C.3       1 UNK         0.0824 
      6 C6         30.3397   22.6507    0.8729 C.3       12 UNK        -0.0944 
      7 S7         31.7094   21.9541    1.8550 S.3       12 UNK        -0.2672 
      8 C8         30.8640   21.3272    3.3415 C.3       12 UNK         0.0333 
      9 C9         30.3435   22.4439    4.2362 C.ar      12 UNK        -0.0807 
     10 C10        31.2378   23.2352    4.9637 C.ar      12 UNK        -0.0894 
     11 C11        30.7674   24.2419    5.8126 C.ar      12 UNK        -0.0804 
     12 C12        29.3906   24.4358    5.9517 C.ar      12 UNK        -0.0824 
     13 C13        28.4860   23.6575    5.2237 C.ar      12 UNK        -0.0762 
     14 C14        28.9687   22.6654    4.3645 C.ar      12 UNK        -0.0782 
     15 C15        26.9872   23.8706    5.3766 C.3       12 UNK         0.0230 
     16 S16        26.3801   25.2056    4.2975 S.3       12 UNK        -0.2608 
     17 C17        26.7797   26.6957    5.2751 C.3       12 UNK        -0.0989 
     18 CA         27.9552   27.5186    4.6827 C.3       5 UNK         0.0716 
     19 N          27.6519   27.9689    3.3234 N.am      5 UNK        -0.4135 
     20 C          28.5467   28.3192    2.3946 C.2       4 UNK         0.5031 
     21 O          29.7621   28.3908    2.5955 O.2       4 UNK        -0.5229 
     22 CA         27.9670   28.6881    1.0179 C.3       4 UNK         0.0329 
     23 CB         27.7084   30.2001    0.9368 C.3       4 UNK        -0.2001 
     24 N          28.8431   28.2901   -0.0854 N.am      4 UNK        -0.4303 
     25 C          29.1529   27.0250   -0.3963 C.2       3 UNK         0.5044 
     26 O          28.7195   26.0385    0.2041 O.2       3 UNK        -0.5152 
     27 CA         30.1341   26.8426   -1.5670 C.3       3 UNK         0.0319 
     28 CB         31.5832   26.9838   -1.0771 C.3       3 UNK        -0.2001 
     29 N          29.9853   25.5305   -2.1939 N.am      3 UNK        -0.4354 
     30 C          28.9638   25.1540   -2.9761 C.2       2 UNK         0.4964 
     31 O          28.0765   25.9154   -3.3634 O.2       2 UNK        -0.5047 
     32 CA         28.9299   23.6732   -3.3971 C.3       2 UNK         0.0288 
     33 CB         29.6225   23.4815   -4.7565 C.3       2 UNK        -0.2113 
     34 N          29.5636   22.8025   -2.4011 N.am      2 UNK        -0.4145 
     35 C          28.9780   22.4228   -1.2564 C.2       1 UNK         0.5006 
     36 O          27.8009   22.6609   -0.9729 O.2       1 UNK        -0.5103 
     37 C          28.3389   28.7059    5.5937 C.2       5 UNK         0.5055 
     38 O          27.5767   29.0459    6.5008 O.2       5 UNK        -0.5220 
     39 N          29.5061   29.3104    5.3296 N.am      6 UNK        -0.4450 
     40 CA         30.1073   30.4429    6.0459 C.3       6 UNK         0.0367 
     41 CB         30.4807   30.0525    7.4920 C.3       6 UNK        -0.1929 
     42 C          29.2252   31.7018    5.9651 C.2       6 UNK         0.5070 
     43 O          28.7345   32.1921    6.9843 O.2       6 UNK        -0.5237 
     44 N          29.0235   32.1818    4.7349 N.am      7 UNK        -0.4739 
     45 CA         28.1857   33.3340    4.4101 C.3       7 UNK         0.0276 
     46 CB         26.7301   32.8756    4.1777 C.3       7 UNK        -0.1927 
     47 C          28.8210   34.0759    3.2282 C.2       7 UNK         0.5013 
     48 O          29.8290   34.7555    3.4242 O.2       7 UNK        -0.5193 
     49 N          28.2528   33.9162    2.0230 N.am      8 UNK        -0.4253 
     50 CA         28.7611   34.4809    0.7637 C.3       8 UNK         0.0242 
     51 CB         27.7191   34.2535   -0.3439 C.3       8 UNK        -0.2000 
     52 C          30.1314   33.9181    0.3342 C.2       8 UNK         0.4948 
     53 O          30.8440   34.5690   -0.4308 O.2       8 UNK        -0.5275 
     54 N          30.4716   32.7332    0.8472 N.am      9 UNK        -0.4246 
     55 CA         31.7732   32.0889    0.7819 C.3       9 UNK         0.0261 
     56 CB         31.7415   30.9734   -0.2750 C.3       9 UNK        -0.1959 
     57 C          32.0432   31.5100    2.1745 C.2       9 UNK         0.5033 
     58 O          31.0920   31.2077    2.9036 O.2       9 UNK        -0.5390 
     59 N          33.3254   31.3418    2.5106 N.am      10 UNK        -0.4215 
     60 CA         33.7907   30.7978    3.7873 C.3       10 UNK         0.0240 
     61 CB         35.0789   31.5355    4.2016 C.3       10 UNK        -0.1982 
     62 C          33.9789   29.2721    3.7003 C.2       10 UNK         0.4970 
     63 O          35.0822   28.7820    3.9464 O.2       10 UNK        -0.4916 
     64 N          32.9125   28.5547    3.3167 N.am      11 UNK        -0.4279 
     65 CA         32.8770   27.0888    3.1343 C.3       11 UNK         0.1003 
     66 C          33.7323   26.5597    1.9408 C.2       11 UNK         0.5709 
     67 N          34.2286   27.4087    1.0478 N.am      11 UNK        -0.7358 
     68 O          33.9246   25.3553    1.7962 O.2       11 UNK        -0.4999 
     69 C69        33.1494   26.2995    4.4491 C.3       12 UNK        -0.0954 
     70 S70        31.9955   26.7294    5.7961 S.3       12 UNK        -0.2268 
     71 C71        31.7385   25.1135    6.5952 C.3       12 UNK         0.0203 
     72 H72        28.7005   17.3955    0.4393 H         1 UNK         0.0888 
     73 H73        27.8168   18.6235    1.3472 H         1 UNK         0.0888 
     74 H74        27.2187   18.0895   -0.2249 H         1 UNK         0.0888 
     75 H75        28.7410   20.6576    1.2122 H         1 UNK         0.3017 
     76 H76        30.7542   21.3155   -0.7710 H         1 UNK         0.0873 
     77 H77        30.7113   23.5831    0.4423 H         1 UNK         0.0745 
     78 H78        29.5103   22.9379    1.5214 H         1 UNK         0.0745 
     79 H79        31.5702   20.7208    3.9105 H         1 UNK         0.0705 
     80 H80        30.0596   20.6524    3.0472 H         1 UNK         0.0705 
     81 H81        32.3011   23.0647    4.8643 H         1 UNK         0.1334 
     82 H82        29.0269   25.2015    6.6221 H         1 UNK         0.1417 
     83 H83        28.2705   22.0575    3.8055 H         1 UNK         0.1562 
     84 H84        26.7347   24.0786    6.4174 H         1 UNK         0.0748 
     85 H85        26.4549   22.9531    5.1209 H         1 UNK         0.0748 
     86 H86        26.9943   26.4057    6.3049 H         1 UNK         0.0940 
     87 H87        25.8771   27.3078    5.3285 H         1 UNK         0.0940 
     88 H88        28.8286   26.8650    4.6313 H         1 UNK         0.0703 
     89 H89        26.6743   27.9591    3.0736 H         1 UNK         0.3081 
     90 H90        27.0175   28.1650    0.8844 H         1 UNK         0.0719 
     91 H91        28.6198   30.7672    1.1171 H         1 UNK         0.0809 
     92 H92        27.3150   30.4890   -0.0381 H         1 UNK         0.0809 
     93 H93        26.9765   30.5079    1.6833 H         1 UNK         0.0809 
     94 H94        29.2604   29.0365   -0.6198 H         1 UNK         0.2990 
     95 H95        29.9355   27.6120   -2.3164 H         1 UNK         0.0690 
     96 H96        32.2912   26.9233   -1.9038 H         1 UNK         0.0788 
     97 H97        31.8380   26.2033   -0.3593 H         1 UNK         0.0788 
     98 H98        31.7448   27.9421   -0.5837 H         1 UNK         0.0788 
     99 H99        30.6515   24.8275   -1.9151 H         1 UNK         0.2993 
    100 H100       27.8817   23.3838   -3.5036 H         1 UNK         0.0949 
    101 H101       30.6779   23.7547   -4.7171 H         1 UNK         0.0767 
    102 H102       29.5550   22.4466   -5.0931 H         1 UNK         0.0767 
    103 H103       29.1539   24.1011   -5.5226 H         1 UNK         0.0767 
    104 H104       30.5208   22.5316   -2.5776 H         1 UNK         0.3013 
    105 H105       29.9905   29.0070    4.4893 H         1 UNK         0.3121 
    106 H106       31.0350   30.6791    5.5284 H         1 UNK         0.0774 
    107 H107       30.9992   30.8710    7.9923 H         1 UNK         0.0815 
    108 H108       29.6022   29.8123    8.0914 H         1 UNK         0.0815 
    109 H109       31.1451   29.1890    7.5102 H         1 UNK         0.0815 
    110 H110       29.5603   31.7725    3.9730 H         1 UNK         0.2987 
    111 H111       28.1910   34.0374    5.2461 H         1 UNK         0.0949 
    112 H112       26.0955   33.7089    3.8725 H         1 UNK         0.0806 
    113 H113       26.6568   32.0979    3.4184 H         1 UNK         0.0806 
    114 H114       26.3020   32.4716    5.0955 H         1 UNK         0.0806 
    115 H115       27.4131   33.3591    1.9614 H         1 UNK         0.3010 
    116 H116       28.8839   35.5566    0.9063 H         1 UNK         0.0829 
    117 H117       26.7651   34.7186   -0.0948 H         1 UNK         0.0813 
    118 H118       28.0518   34.6887   -1.2875 H         1 UNK         0.0813 
    119 H119       27.5414   33.1919   -0.5206 H         1 UNK         0.0813 
    120 H120       29.8564   32.3155    1.5316 H         1 UNK         0.3038 
    121 H121       32.5467   32.8204    0.5378 H         1 UNK         0.0769 
    122 H122       32.7157   30.4924   -0.3694 H         1 UNK         0.0811 
    123 H123       31.4762   31.3653   -1.2570 H         1 UNK         0.0811 
    124 H124       31.0183   30.2011   -0.0142 H         1 UNK         0.0811 
    125 H125       34.0412   31.5867    1.8407 H         1 UNK         0.3204 
    126 H126       33.0491   30.9882    4.5634 H         1 UNK         0.0748 
    127 H127       35.4378   31.1827    5.1695 H         1 UNK         0.0771 
    128 H128       35.8832   31.3857    3.4801 H         1 UNK         0.0771 
    129 H129       34.9078   32.6082    4.2946 H         1 UNK         0.0771 
    130 H130       32.0486   29.0375    3.1002 H         1 UNK         0.2980 
    131 H131       31.8529   26.8604    2.8402 H         1 UNK         0.0545 
    132 H132       34.0912   28.3991    1.1535 H         1 UNK         0.3459 
    133 H133       34.7732   27.0502    0.2801 H         1 UNK         0.3459 
    134 H134       34.1679   26.4647    4.8018 H         1 UNK         0.0616 
    135 H135       33.0728   25.2293    4.2600 H         1 UNK         0.0616 
    136 H136       31.3474   25.2803    7.5999 H         1 UNK         0.0634 
    137 H137       32.6984   24.6106    6.7224 H         1 UNK         0.0634 
@<TRIPOS>BOND
     1    1    2 1    
     2    1   72 1    
     3    1   73 1    
     4    1   74 1    
     5    2    3 2    
     6    2    4 am   BACKBONE|DICT|INTERRES
     7    4    5 1    
     8    4   75 1    
     9    5    6 1    
    10    5   35 1    
    11    5   76 1    
    12    6    7 1    
    13    6   77 1    
    14    6   78 1    
    15    7    8 1    
    16    8    9 1    
    17    8   79 1    
    18    8   80 1    
    19    9   10 ar   
    20    9   14 ar   
    21   10   11 ar   
    22   10   81 1    
    23   11   12 ar   
    24   11   71 1    
    25   12   13 ar   
    26   12   82 1    
    27   13   14 ar   
    28   13   15 1    
    29   14   83 1    
    30   15   16 1    
    31   15   84 1    
    32   15   85 1    
    33   16   17 1    
    34   17   18 1    
    35   17   86 1    
    36   17   87 1    
    37   18   19 1    
    38   18   37 1    
    39   18   88 1    
    40   19   20 am   BACKBONE|DICT|INTERRES
    41   19   89 1    
    42   20   21 2    
    43   20   22 1    
    44   22   23 1    
    45   22   24 1    
    46   22   90 1    
    47   23   91 1    
    48   23   92 1    
    49   23   93 1    
    50   24   25 am   BACKBONE|DICT|INTERRES
    51   24   94 1    
    52   25   26 2    
    53   25   27 1    
    54   27   28 1    
    55   27   29 1    
    56   27   95 1    
    57   28   96 1    
    58   28   97 1    
    59   28   98 1    
    60   29   30 am   BACKBONE|DICT|INTERRES
    61   29   99 1    
    62   30   31 2    
    63   30   32 1    
    64   32   33 1    
    65   32   34 1    
    66   32  100 1    
    67   33  101 1    
    68   33  102 1    
    69   33  103 1    
    70   34   35 am   BACKBONE|DICT|INTERRES
    71   34  104 1    
    72   35   36 2    
    73   37   38 2    
    74   37   39 am   BACKBONE|DICT|INTERRES
    75   39   40 1    
    76   39  105 1    
    77   40   41 1    
    78   40   42 1    
    79   40  106 1    
    80   41  107 1    
    81   41  108 1    
    82   41  109 1    
    83   42   43 2    
    84   42   44 am   BACKBONE|DICT|INTERRES
    85   44   45 1    
    86   44  110 1    
    87   45   46 1    
    88   45   47 1    
    89   45  111 1    
    90   46  112 1    
    91   46  113 1    
    92   46  114 1    
    93   47   48 2    
    94   47   49 am   BACKBONE|DICT|INTERRES
    95   49   50 1    
    96   49  115 1    
    97   50   51 1    
    98   50   52 1    
    99   50  116 1    
   100   51  117 1    
   101   51  118 1    
   102   51  119 1    
   103   52   53 2    
   104   52   54 am   BACKBONE|DICT|INTERRES
   105   54   55 1    
   106   54  120 1    
   107   55   56 1    
   108   55   57 1    
   109   55  121 1    
   110   56  122 1    
   111   56  123 1    
   112   56  124 1    
   113   57   58 2    
   114   57   59 am   BACKBONE|DICT|INTERRES
   115   59   60 1    
   116   59  125 1    
   117   60   61 1    
   118   60   62 1    
   119   60  126 1    
   120   61  127 1    
   121   61  128 1    
   122   61  129 1    
   123   62   63 2    
   124   62   64 am   BACKBONE|DICT|INTERRES
   125   64   65 1    
   126   64  130 1    
   127   65   66 1    
   128   65   69 1    
   129   65  131 1    
   130   66   67 am   BACKBONE|DICT|INTERRES
   131   66   68 2    
   132   67  132 1    
   133   67  133 1    
   134   69   70 1    
   135   69  134 1    
   136   69  135 1    
   137   70   71 1    
   138   71  136 1    
   139   71  137 1    
@<TRIPOS>SUBSTRUCTURE
     1 UNK         1 GROUP             0       ****    0 ROOT    
