@<TRIPOS>MOLECULE
3R136
137   139    1
SMALL
USER_CHARGES


@<TRIPOS>ATOM
      1 CA         25.1782   20.3684    2.3280 C.3       0 UNK        -0.1979 
      2 C          25.9568   21.3404    1.4559 C.2       0 UNK         0.4864 
      3 O          25.4335   22.3960    1.0975 O.2       0 UNK        -0.5359 
      4 N          27.2125   21.0099    1.1242 N.am      1 UNK        -0.4318 
      5 CA         28.1031   21.8170    0.2786 C.3       1 UNK         0.0824 
      6 C6         29.4220   21.0742   -0.0484 C.3       12 UNK        -0.0944 
      7 S7         30.4108   20.6227    1.4234 S.3       12 UNK        -0.2672 
      8 C8         32.0578   21.2733    0.9966 C.3       12 UNK         0.0333 
      9 C9         32.1012   22.7954    0.9816 C.ar      12 UNK        -0.0807 
     10 C10        32.2121   23.5096    2.1786 C.ar      12 UNK        -0.0894 
     11 C11        32.2914   24.9060    2.1670 C.ar      12 UNK        -0.0804 
     12 C12        32.2462   25.5894    0.9478 C.ar      12 UNK        -0.0824 
     13 C13        32.1335   24.8854   -0.2552 C.ar      12 UNK        -0.0762 
     14 C14        32.0671   23.4898   -0.2316 C.ar      12 UNK        -0.0782 
     15 C15        32.1087   25.6237   -1.5861 C.3       12 UNK         0.0230 
     16 S16        30.4175   25.7947   -2.2364 S.3       12 UNK        -0.2608 
     17 C17        29.7412   27.0448   -1.0971 C.3       12 UNK        -0.0989 
     18 CA         28.3297   27.5202   -1.5203 C.3       5 UNK         0.0716 
     19 N          27.3399   26.4494   -1.3821 N.am      5 UNK        -0.4135 
     20 C          26.1146   26.4590   -1.9221 C.2       4 UNK         0.5031 
     21 O          25.7184   27.3153   -2.7150 O.2       4 UNK        -0.5229 
     22 CA         25.1617   25.3303   -1.4907 C.3       4 UNK         0.0329 
     23 CB         25.5028   24.0159   -2.2114 C.3       4 UNK        -0.2001 
     24 N          25.1741   25.1178   -0.0411 N.am      4 UNK        -0.4303 
     25 C          24.6898   25.9833    0.8634 C.2       3 UNK         0.5044 
     26 O          24.0863   27.0156    0.5685 O.2       3 UNK        -0.5152 
     27 CA         24.9034   25.6431    2.3480 C.3       3 UNK         0.0319 
     28 CB         23.7326   24.8064    2.8900 C.3       3 UNK        -0.2001 
     29 N          26.1610   24.9223    2.5569 N.am      3 UNK        -0.4354 
     30 C          27.3335   25.5120    2.8371 C.2       2 UNK         0.4964 
     31 O          27.4540   26.7137    3.0720 O.2       2 UNK        -0.5047 
     32 CA         28.5929   24.6244    2.8817 C.3       2 UNK         0.0288 
     33 CB         28.9890   24.3240    4.3365 C.3       2 UNK        -0.2113 
     34 N          28.4605   23.3589    2.1583 N.am      2 UNK        -0.4145 
     35 C          28.3405   23.2410    0.8284 C.2       1 UNK         0.5006 
     36 O          28.3250   24.1999    0.0578 O.2       1 UNK        -0.5103 
     37 C          27.9204   28.7518   -0.6877 C.2       5 UNK         0.5055 
     38 O          27.1856   28.6243    0.2944 O.2       5 UNK        -0.5220 
     39 N          28.4477   29.9240   -1.0663 N.am      6 UNK        -0.4450 
     40 CA         28.3594   31.1492   -0.2703 C.3       6 UNK         0.0367 
     41 CB         28.8113   32.3484   -1.1195 C.3       6 UNK        -0.1929 
     42 C          29.2277   31.0240    0.9920 C.2       6 UNK         0.5070 
     43 O          30.3753   30.5819    0.8972 O.2       6 UNK        -0.5237 
     44 N          28.6866   31.4380    2.1429 N.am      7 UNK        -0.4739 
     45 CA         29.3195   31.3313    3.4625 C.3       7 UNK         0.0276 
     46 CB         28.2159   31.3148    4.5372 C.3       7 UNK        -0.1927 
     47 C          30.3789   32.4240    3.7179 C.2       7 UNK         0.5013 
     48 O          30.3751   33.0476    4.7826 O.2       7 UNK        -0.5193 
     49 N          31.2672   32.6439    2.7395 N.am      8 UNK        -0.4253 
     50 CA         32.3747   33.6006    2.7783 C.3       8 UNK         0.0242 
     51 CB         33.0427   33.6550    1.3935 C.3       8 UNK        -0.2000 
     52 C          33.3781   33.2196    3.8784 C.2       8 UNK         0.4948 
     53 O          34.1269   32.2561    3.7062 O.2       8 UNK        -0.5275 
     54 N          33.3123   33.9428    5.0077 N.am      9 UNK        -0.4246 
     55 CA         33.9904   33.6566    6.2799 C.3       9 UNK         0.0261 
     56 CB         35.5145   33.8673    6.1513 C.3       9 UNK        -0.1959 
     57 C          33.6204   32.2648    6.8347 C.2       9 UNK         0.5033 
     58 O          34.4974   31.5432    7.3185 O.2       9 UNK        -0.5390 
     59 N          32.3363   31.8929    6.6960 N.am      10 UNK        -0.4215 
     60 CA         31.7295   30.5774    6.9444 C.3       10 UNK         0.0240 
     61 CB         31.8568   30.1431    8.4190 C.3       10 UNK        -0.1982 
     62 C          32.2471   29.5034    5.9719 C.2       10 UNK         0.4970 
     63 O          31.4716   28.9854    5.1694 O.2       10 UNK        -0.4916 
     64 N          33.5490   29.2240    6.0471 N.am      11 UNK        -0.4279 
     65 CA         34.3148   28.3738    5.1321 C.3       11 UNK         0.1003 
     66 C          35.8184   28.7810    5.0516 C.2       11 UNK         0.5709 
     67 N          36.2644   29.8619    5.6860 N.am      11 UNK        -0.7358 
     68 O          36.6078   28.1134    4.3883 O.2       11 UNK        -0.4999 
     69 C69        34.0871   26.8608    5.4196 C.3       12 UNK        -0.0954 
     70 S70        34.1978   25.8336    3.9176 S.3       12 UNK        -0.2268 
     71 C71        32.4436   25.6757    3.4693 C.3       12 UNK         0.0203 
     72 H72        24.2816   20.0352    1.8063 H         1 UNK         0.0888 
     73 H73        25.7683   19.4894    2.5863 H         1 UNK         0.0888 
     74 H74        24.8727   20.8573    3.2526 H         1 UNK         0.0888 
     75 H75        27.6043   20.1403    1.4584 H         1 UNK         0.3017 
     76 H76        27.5757   21.9484   -0.6682 H         1 UNK         0.0873 
     77 H77        29.1931   20.1518   -0.5842 H         1 UNK         0.0745 
     78 H78        30.0198   21.6638   -0.7435 H         1 UNK         0.0745 
     79 H79        32.7793   20.9004    1.7251 H         1 UNK         0.0705 
     80 H80        32.3671   20.8674    0.0320 H         1 UNK         0.0705 
     81 H81        32.2503   22.9769    3.1190 H         1 UNK         0.1334 
     82 H82        32.3101   26.6690    0.9358 H         1 UNK         0.1417 
     83 H83        31.9917   22.9466   -1.1637 H         1 UNK         0.1562 
     84 H84        32.7106   25.0785   -2.3147 H         1 UNK         0.0748 
     85 H85        32.5685   26.6088   -1.4922 H         1 UNK         0.0748 
     86 H86        30.4435   27.8807   -1.0680 H         1 UNK         0.0940 
     87 H87        29.7171   26.6302   -0.0869 H         1 UNK         0.0940 
     88 H88        28.3594   27.8215   -2.5698 H         1 UNK         0.0703 
     89 H89        27.6031   25.6807   -0.7690 H         1 UNK         0.3081 
     90 H90        24.1482   25.6192   -1.7769 H         1 UNK         0.0719 
     91 H91        26.5200   23.6881   -1.9969 H         1 UNK         0.0809 
     92 H92        24.8236   23.2144   -1.9199 H         1 UNK         0.0809 
     93 H93        25.4218   24.1346   -3.2926 H         1 UNK         0.0809 
     94 H94        25.5736   24.2471    0.2922 H         1 UNK         0.2990 
     95 H95        24.9236   26.5836    2.9031 H         1 UNK         0.0690 
     96 H96        23.8617   24.5841    3.9493 H         1 UNK         0.0788 
     97 H97        23.6254   23.8602    2.3592 H         1 UNK         0.0788 
     98 H98        22.7901   25.3454    2.7845 H         1 UNK         0.0788 
     99 H99        26.1457   23.9312    2.3482 H         1 UNK         0.2993 
    100 H100       29.4001   25.1901    2.4116 H         1 UNK         0.0949 
    101 H101       29.1742   25.2471    4.8878 H         1 UNK         0.0767 
    102 H102       28.2044   23.7797    4.8636 H         1 UNK         0.0767 
    103 H103       29.9009   23.7290    4.3858 H         1 UNK         0.0767 
    104 H104       28.4610   22.5133    2.7099 H         1 UNK         0.3013 
    105 H105       29.0705   29.9476   -1.8609 H         1 UNK         0.3121 
    106 H106       27.3172   31.3004    0.0201 H         1 UNK         0.0774 
    107 H107       28.7345   33.2774   -0.5530 H         1 UNK         0.0815 
    108 H108       29.8491   32.2492   -1.4410 H         1 UNK         0.0815 
    109 H109       28.1924   32.4609   -2.0099 H         1 UNK         0.0815 
    110 H110       27.7538   31.8260    2.1268 H         1 UNK         0.2987 
    111 H111       29.8423   30.3736    3.5151 H         1 UNK         0.0949 
    112 H112       28.6358   31.1654    5.5322 H         1 UNK         0.0806 
    113 H113       27.6572   32.2513    4.5564 H         1 UNK         0.0806 
    114 H114       27.5086   30.5029    4.3658 H         1 UNK         0.0806 
    115 H115       31.2115   32.0362    1.9276 H         1 UNK         0.3010 
    116 H116       31.9635   34.5888    2.9954 H         1 UNK         0.0829 
    117 H117       32.3409   33.9852    0.6273 H         1 UNK         0.0813 
    118 H118       33.8789   34.3554    1.3916 H         1 UNK         0.0813 
    119 H119       33.4319   32.6812    1.0929 H         1 UNK         0.0813 
    120 H120       32.6327   34.6912    5.0423 H         1 UNK         0.3038 
    121 H121       33.6155   34.3817    7.0037 H         1 UNK         0.0769 
    122 H122       36.0059   33.7664    7.1199 H         1 UNK         0.0811 
    123 H123       35.7469   34.8628    5.7735 H         1 UNK         0.0811 
    124 H124       35.9701   33.1390    5.4796 H         1 UNK         0.0811 
    125 H125       31.7202   32.5443    6.2166 H         1 UNK         0.3204 
    126 H126       30.6659   30.7002    6.7374 H         1 UNK         0.0748 
    127 H127       31.3356   29.2004    8.5903 H         1 UNK         0.0771 
    128 H128       32.8928   29.9982    8.7254 H         1 UNK         0.0771 
    129 H129       31.4141   30.8830    9.0859 H         1 UNK         0.0771 
    130 H130       34.0952   29.7601    6.7133 H         1 UNK         0.2980 
    131 H131       33.9263   28.5930    4.1355 H         1 UNK         0.0545 
    132 H132       35.6541   30.4764    6.2130 H         1 UNK         0.3459 
    133 H133       37.2415   30.0924    5.6043 H         1 UNK         0.3459 
    134 H134       34.8046   26.4922    6.1546 H         1 UNK         0.0616 
    135 H135       33.1056   26.6928    5.8653 H         1 UNK         0.0616 
    136 H136       31.9098   25.1677    4.2732 H         1 UNK         0.0634 
    137 H137       31.9992   26.6685    3.3786 H         1 UNK         0.0634 
@<TRIPOS>BOND
     1    1    2 1    
     2    1   72 1    
     3    1   73 1    
     4    1   74 1    
     5    2    3 2    
     6    2    4 am   BACKBONE|DICT|INTERRES
     7    4    5 1    
     8    4   75 1    
     9    5    6 1    
    10    5   35 1    
    11    5   76 1    
    12    6    7 1    
    13    6   77 1    
    14    6   78 1    
    15    7    8 1    
    16    8    9 1    
    17    8   79 1    
    18    8   80 1    
    19    9   10 ar   
    20    9   14 ar   
    21   10   11 ar   
    22   10   81 1    
    23   11   12 ar   
    24   11   71 1    
    25   12   13 ar   
    26   12   82 1    
    27   13   14 ar   
    28   13   15 1    
    29   14   83 1    
    30   15   16 1    
    31   15   84 1    
    32   15   85 1    
    33   16   17 1    
    34   17   18 1    
    35   17   86 1    
    36   17   87 1    
    37   18   19 1    
    38   18   37 1    
    39   18   88 1    
    40   19   20 am   BACKBONE|DICT|INTERRES
    41   19   89 1    
    42   20   21 2    
    43   20   22 1    
    44   22   23 1    
    45   22   24 1    
    46   22   90 1    
    47   23   91 1    
    48   23   92 1    
    49   23   93 1    
    50   24   25 am   BACKBONE|DICT|INTERRES
    51   24   94 1    
    52   25   26 2    
    53   25   27 1    
    54   27   28 1    
    55   27   29 1    
    56   27   95 1    
    57   28   96 1    
    58   28   97 1    
    59   28   98 1    
    60   29   30 am   BACKBONE|DICT|INTERRES
    61   29   99 1    
    62   30   31 2    
    63   30   32 1    
    64   32   33 1    
    65   32   34 1    
    66   32  100 1    
    67   33  101 1    
    68   33  102 1    
    69   33  103 1    
    70   34   35 am   BACKBONE|DICT|INTERRES
    71   34  104 1    
    72   35   36 2    
    73   37   38 2    
    74   37   39 am   BACKBONE|DICT|INTERRES
    75   39   40 1    
    76   39  105 1    
    77   40   41 1    
    78   40   42 1    
    79   40  106 1    
    80   41  107 1    
    81   41  108 1    
    82   41  109 1    
    83   42   43 2    
    84   42   44 am   BACKBONE|DICT|INTERRES
    85   44   45 1    
    86   44  110 1    
    87   45   46 1    
    88   45   47 1    
    89   45  111 1    
    90   46  112 1    
    91   46  113 1    
    92   46  114 1    
    93   47   48 2    
    94   47   49 am   BACKBONE|DICT|INTERRES
    95   49   50 1    
    96   49  115 1    
    97   50   51 1    
    98   50   52 1    
    99   50  116 1    
   100   51  117 1    
   101   51  118 1    
   102   51  119 1    
   103   52   53 2    
   104   52   54 am   BACKBONE|DICT|INTERRES
   105   54   55 1    
   106   54  120 1    
   107   55   56 1    
   108   55   57 1    
   109   55  121 1    
   110   56  122 1    
   111   56  123 1    
   112   56  124 1    
   113   57   58 2    
   114   57   59 am   BACKBONE|DICT|INTERRES
   115   59   60 1    
   116   59  125 1    
   117   60   61 1    
   118   60   62 1    
   119   60  126 1    
   120   61  127 1    
   121   61  128 1    
   122   61  129 1    
   123   62   63 2    
   124   62   64 am   BACKBONE|DICT|INTERRES
   125   64   65 1    
   126   64  130 1    
   127   65   66 1    
   128   65   69 1    
   129   65  131 1    
   130   66   67 am   BACKBONE|DICT|INTERRES
   131   66   68 2    
   132   67  132 1    
   133   67  133 1    
   134   69   70 1    
   135   69  134 1    
   136   69  135 1    
   137   70   71 1    
   138   71  136 1    
   139   71  137 1    
@<TRIPOS>SUBSTRUCTURE
     1 UNK         1 GROUP             0       ****    0 ROOT    
