@<TRIPOS>MOLECULE
3R136
137   139    1
SMALL
USER_CHARGES


@<TRIPOS>ATOM
      1 CA         30.3809   16.7040    1.5096 C.3       0 UNK        -0.1979 
      2 C          30.7087   18.1891    1.5605 C.2       0 UNK         0.4864 
      3 O          31.8803   18.5605    1.4716 O.2       0 UNK        -0.5359 
      4 N          29.6855   19.0391    1.7125 N.am      1 UNK        -0.4318 
      5 CA         29.8063   20.4990    1.7385 C.3       1 UNK         0.0824 
      6 C6         28.4903   21.1783    2.1972 C.3       12 UNK        -0.0944 
      7 S7         27.9491   20.7218    3.8777 S.3       12 UNK        -0.2672 
      8 C8         28.9696   21.7888    4.9541 C.3       12 UNK         0.0333 
      9 C9         28.9946   23.2589    4.5433 C.ar      12 UNK        -0.0807 
     10 C10        30.2224   23.8970    4.3448 C.ar      12 UNK        -0.0894 
     11 C11        30.2754   25.2439    3.9782 C.ar      12 UNK        -0.0804 
     12 C12        29.0849   25.9514    3.7894 C.ar      12 UNK        -0.0824 
     13 C13        27.8465   25.3277    3.9807 C.ar      12 UNK        -0.0762 
     14 C14        27.8091   23.9838    4.3712 C.ar      12 UNK        -0.0782 
     15 C15        26.5530   26.0917    3.7200 C.3       12 UNK         0.0230 
     16 S16        26.4186   27.5784    4.7590 S.3       12 UNK        -0.2608 
     17 C17        25.8079   28.8298    3.5773 C.3       12 UNK        -0.0989 
     18 CA         26.9762   29.6410    2.9617 C.3       5 UNK         0.0716 
     19 N          27.6403   28.9301    1.8581 N.am      5 UNK        -0.4135 
     20 C          28.8210   29.2735    1.3248 C.2       4 UNK         0.5031 
     21 O          29.4970   30.2092    1.7568 O.2       4 UNK        -0.5229 
     22 CA         29.3050   28.4768    0.0934 C.3       4 UNK         0.0329 
     23 CB         30.7666   28.7915   -0.2680 C.3       4 UNK        -0.2001 
     24 N          29.1419   27.0251    0.2367 N.am      4 UNK        -0.4303 
     25 C          27.9846   26.3682    0.0844 C.2       3 UNK         0.5044 
     26 O          26.9172   26.9454   -0.1310 O.2       3 UNK        -0.5152 
     27 CA         27.9857   24.8411    0.2752 C.3       3 UNK         0.0319 
     28 CB         26.9376   24.1323   -0.6088 C.3       3 UNK        -0.2001 
     29 N          29.2960   24.1914    0.1640 N.am      3 UNK        -0.4354 
     30 C          30.0353   23.9977   -0.9410 C.2       2 UNK         0.4964 
     31 O          29.8091   24.5330   -2.0259 O.2       2 UNK        -0.5047 
     32 CA         31.1962   22.9848   -0.8258 C.3       2 UNK         0.0288 
     33 CB         32.5615   23.6857   -0.7579 C.3       2 UNK        -0.2113 
     34 N          31.0360   22.0911    0.3304 N.am      2 UNK        -0.4145 
     35 C          30.1844   21.0542    0.3503 C.2       1 UNK         0.5006 
     36 O          29.6277   20.6055   -0.6556 O.2       1 UNK        -0.5103 
     37 C          26.5481   31.0711    2.5628 C.2       5 UNK         0.5055 
     38 O          26.4860   31.9422    3.4310 O.2       5 UNK        -0.5220 
     39 N          26.3372   31.3122    1.2591 N.am      6 UNK        -0.4450 
     40 CA         26.1457   32.6422    0.6710 C.3       6 UNK         0.0367 
     41 CB         25.7045   32.4873   -0.7931 C.3       6 UNK        -0.1929 
     42 C          27.3965   33.5412    0.7616 C.2       6 UNK         0.5070 
     43 O          27.2562   34.7636    0.7477 O.2       6 UNK        -0.5237 
     44 N          28.5856   32.9335    0.8832 N.am      7 UNK        -0.4739 
     45 CA         29.8690   33.6016    1.1079 C.3       7 UNK         0.0276 
     46 CB         30.9130   33.0235    0.1346 C.3       7 UNK        -0.1927 
     47 C          30.2949   33.4434    2.5793 C.2       7 UNK         0.5013 
     48 O          31.4638   33.1714    2.8585 O.2       7 UNK        -0.5193 
     49 N          29.3228   33.5717    3.4962 N.am      8 UNK        -0.4253 
     50 CA         29.4511   33.5016    4.9588 C.3       8 UNK         0.0242 
     51 CB         30.2412   34.7196    5.4837 C.3       8 UNK        -0.2000 
     52 C          30.0138   32.1671    5.4929 C.2       8 UNK         0.4948 
     53 O          30.5433   32.1391    6.6051 O.2       8 UNK        -0.5275 
     54 N          29.8935   31.0933    4.6969 N.am      9 UNK        -0.4246 
     55 CA         30.4247   29.7476    4.9370 C.3       9 UNK         0.0261 
     56 CB         29.7638   29.0875    6.1659 C.3       9 UNK        -0.1959 
     57 C          31.9634   29.7136    4.9776 C.2       9 UNK         0.5033 
     58 O          32.5358   28.9223    5.7294 O.2       9 UNK        -0.5390 
     59 N          32.6110   30.5581    4.1595 N.am      10 UNK        -0.4215 
     60 CA         34.0644   30.5719    3.9851 C.3       10 UNK         0.0240 
     61 CB         34.4849   31.8296    3.2070 C.3       10 UNK        -0.1982 
     62 C          34.5798   29.2982    3.2939 C.2       10 UNK         0.4970 
     63 O          35.5378   28.6969    3.7809 O.2       10 UNK        -0.4916 
     64 N          33.9287   28.9185    2.1827 N.am      11 UNK        -0.4279 
     65 CA         34.2381   27.7348    1.3563 C.3       11 UNK         0.1003 
     66 C          35.6886   27.6961    0.7761 C.2       11 UNK         0.5709 
     67 N          36.3520   28.8332    0.6003 N.am      11 UNK        -0.7358 
     68 O          36.2118   26.6350    0.4439 O.2       11 UNK        -0.4999 
     69 C69        33.7982   26.4073    2.0422 C.3       12 UNK        -0.0954 
     70 S70        31.9832   26.2025    2.0426 S.3       12 UNK        -0.2268 
     71 C71        31.6210   25.9299    3.7983 C.3       12 UNK         0.0203 
     72 H72        30.8960   16.1782    2.3131 H         1 UNK         0.0888 
     73 H73        29.3120   16.5187    1.6142 H         1 UNK         0.0888 
     74 H74        30.7071   16.2804    0.5601 H         1 UNK         0.0888 
     75 H75        28.7435   18.6804    1.7738 H         1 UNK         0.3017 
     76 H76        30.5982   20.7571    2.4451 H         1 UNK         0.0873 
     77 H77        28.5679   22.2634    2.1392 H         1 UNK         0.0745 
     78 H78        27.6774   20.9153    1.5170 H         1 UNK         0.0745 
     79 H79        28.5921   21.7169    5.9749 H         1 UNK         0.0705 
     80 H80        29.9803   21.3784    4.9756 H         1 UNK         0.0705 
     81 H81        31.1429   23.3470    4.4868 H         1 UNK         0.1334 
     82 H82        29.1217   26.9899    3.4926 H         1 UNK         0.1417 
     83 H83        26.8583   23.4902    4.5211 H         1 UNK         0.1562 
     84 H84        25.6817   25.4610    3.9027 H         1 UNK         0.0748 
     85 H85        26.5128   26.3655    2.6672 H         1 UNK         0.0748 
     86 H86        25.1403   29.4808    4.1463 H         1 UNK         0.0940 
     87 H87        25.1856   28.3696    2.8077 H         1 UNK         0.0940 
     88 H88        27.7217   29.7796    3.7445 H         1 UNK         0.0703 
     89 H89        27.1245   28.1842    1.4023 H         1 UNK         0.3081 
     90 H90        28.6912   28.8026   -0.7490 H         1 UNK         0.0719 
     91 H91        31.4239   28.6658    0.5900 H         1 UNK         0.0809 
     92 H92        31.1304   28.1532   -1.0735 H         1 UNK         0.0809 
     93 H93        30.8685   29.8230   -0.6049 H         1 UNK         0.0809 
     94 H94        29.9701   26.4944    0.4704 H         1 UNK         0.2990 
     95 H95        27.6777   24.6774    1.3064 H         1 UNK         0.0690 
     96 H96        26.9336   23.0562   -0.4343 H         1 UNK         0.0788 
     97 H97        27.1229   24.3000   -1.6702 H         1 UNK         0.0788 
     98 H98        25.9317   24.4958   -0.3949 H         1 UNK         0.0788 
     99 H99        29.6280   23.7646    1.0156 H         1 UNK         0.2993 
    100 H100       31.1794   22.3852   -1.7390 H         1 UNK         0.0949 
    101 H101       33.3756   22.9684   -0.8630 H         1 UNK         0.0767 
    102 H102       32.6705   24.4182   -1.5591 H         1 UNK         0.0767 
    103 H103       32.7024   24.2068    0.1854 H         1 UNK         0.0767 
    104 H104       31.4937   22.3715    1.1863 H         1 UNK         0.3013 
    105 H105       26.3866   30.5370    0.6143 H         1 UNK         0.3121 
    106 H106       25.3444   33.1409    1.2207 H         1 UNK         0.0774 
    107 H107       26.4624   31.9823   -1.3934 H         1 UNK         0.0815 
    108 H108       25.5236   33.4612   -1.2504 H         1 UNK         0.0815 
    109 H109       24.7776   31.9188   -0.8716 H         1 UNK         0.0815 
    110 H110       28.6154   31.9228    0.9484 H         1 UNK         0.2987 
    111 H111       29.7819   34.6726    0.9127 H         1 UNK         0.0949 
    112 H112       31.1192   31.9742    0.3453 H         1 UNK         0.0806 
    113 H113       30.5798   33.1014   -0.9002 H         1 UNK         0.0806 
    114 H114       31.8587   33.5615    0.2121 H         1 UNK         0.0806 
    115 H115       28.3843   33.7324    3.1546 H         1 UNK         0.3010 
    116 H116       28.4354   33.5710    5.3517 H         1 UNK         0.0829 
    117 H117       31.2879   34.6818    5.1796 H         1 UNK         0.0813 
    118 H118       29.8187   35.6553    5.1177 H         1 UNK         0.0813 
    119 H119       30.2209   34.7632    6.5734 H         1 UNK         0.0813 
    120 H120       29.4932   31.2351    3.7776 H         1 UNK         0.3038 
    121 H121       30.1467   29.1508    4.0692 H         1 UNK         0.0769 
    122 H122       30.0244   28.0301    6.2266 H         1 UNK         0.0811 
    123 H123       30.0826   29.5539    7.0983 H         1 UNK         0.0811 
    124 H124       28.6772   29.1488    6.1149 H         1 UNK         0.0811 
    125 H125       32.0770   31.2333    3.6221 H         1 UNK         0.3204 
    126 H126       34.5213   30.6208    4.9760 H         1 UNK         0.0748 
    127 H127       35.5663   31.8612    3.0675 H         1 UNK         0.0771 
    128 H128       34.0239   31.8723    2.2192 H         1 UNK         0.0771 
    129 H129       34.2014   32.7361    3.7425 H         1 UNK         0.0771 
    130 H130       33.1600   29.4875    1.8631 H         1 UNK         0.2980 
    131 H131       33.6307   27.8423    0.4577 H         1 UNK         0.0545 
    132 H132       37.2827   28.8048    0.2150 H         1 UNK         0.3459 
    133 H133       35.9362   29.7148    0.8524 H         1 UNK         0.3459 
    134 H134       34.1988   25.5380    1.5197 H         1 UNK         0.0616 
    135 H135       34.1919   26.3497    3.0577 H         1 UNK         0.0616 
    136 H136       32.4140   25.3300    4.2473 H         1 UNK         0.0634 
    137 H137       31.6212   26.8846    4.3199 H         1 UNK         0.0634 
@<TRIPOS>BOND
     1    1    2 1    
     2    1   72 1    
     3    1   73 1    
     4    1   74 1    
     5    2    3 2    
     6    2    4 am   BACKBONE|DICT|INTERRES
     7    4    5 1    
     8    4   75 1    
     9    5    6 1    
    10    5   35 1    
    11    5   76 1    
    12    6    7 1    
    13    6   77 1    
    14    6   78 1    
    15    7    8 1    
    16    8    9 1    
    17    8   79 1    
    18    8   80 1    
    19    9   10 ar   
    20    9   14 ar   
    21   10   11 ar   
    22   10   81 1    
    23   11   12 ar   
    24   11   71 1    
    25   12   13 ar   
    26   12   82 1    
    27   13   14 ar   
    28   13   15 1    
    29   14   83 1    
    30   15   16 1    
    31   15   84 1    
    32   15   85 1    
    33   16   17 1    
    34   17   18 1    
    35   17   86 1    
    36   17   87 1    
    37   18   19 1    
    38   18   37 1    
    39   18   88 1    
    40   19   20 am   BACKBONE|DICT|INTERRES
    41   19   89 1    
    42   20   21 2    
    43   20   22 1    
    44   22   23 1    
    45   22   24 1    
    46   22   90 1    
    47   23   91 1    
    48   23   92 1    
    49   23   93 1    
    50   24   25 am   BACKBONE|DICT|INTERRES
    51   24   94 1    
    52   25   26 2    
    53   25   27 1    
    54   27   28 1    
    55   27   29 1    
    56   27   95 1    
    57   28   96 1    
    58   28   97 1    
    59   28   98 1    
    60   29   30 am   BACKBONE|DICT|INTERRES
    61   29   99 1    
    62   30   31 2    
    63   30   32 1    
    64   32   33 1    
    65   32   34 1    
    66   32  100 1    
    67   33  101 1    
    68   33  102 1    
    69   33  103 1    
    70   34   35 am   BACKBONE|DICT|INTERRES
    71   34  104 1    
    72   35   36 2    
    73   37   38 2    
    74   37   39 am   BACKBONE|DICT|INTERRES
    75   39   40 1    
    76   39  105 1    
    77   40   41 1    
    78   40   42 1    
    79   40  106 1    
    80   41  107 1    
    81   41  108 1    
    82   41  109 1    
    83   42   43 2    
    84   42   44 am   BACKBONE|DICT|INTERRES
    85   44   45 1    
    86   44  110 1    
    87   45   46 1    
    88   45   47 1    
    89   45  111 1    
    90   46  112 1    
    91   46  113 1    
    92   46  114 1    
    93   47   48 2    
    94   47   49 am   BACKBONE|DICT|INTERRES
    95   49   50 1    
    96   49  115 1    
    97   50   51 1    
    98   50   52 1    
    99   50  116 1    
   100   51  117 1    
   101   51  118 1    
   102   51  119 1    
   103   52   53 2    
   104   52   54 am   BACKBONE|DICT|INTERRES
   105   54   55 1    
   106   54  120 1    
   107   55   56 1    
   108   55   57 1    
   109   55  121 1    
   110   56  122 1    
   111   56  123 1    
   112   56  124 1    
   113   57   58 2    
   114   57   59 am   BACKBONE|DICT|INTERRES
   115   59   60 1    
   116   59  125 1    
   117   60   61 1    
   118   60   62 1    
   119   60  126 1    
   120   61  127 1    
   121   61  128 1    
   122   61  129 1    
   123   62   63 2    
   124   62   64 am   BACKBONE|DICT|INTERRES
   125   64   65 1    
   126   64  130 1    
   127   65   66 1    
   128   65   69 1    
   129   65  131 1    
   130   66   67 am   BACKBONE|DICT|INTERRES
   131   66   68 2    
   132   67  132 1    
   133   67  133 1    
   134   69   70 1    
   135   69  134 1    
   136   69  135 1    
   137   70   71 1    
   138   71  136 1    
   139   71  137 1    
@<TRIPOS>SUBSTRUCTURE
     1 UNK         1 GROUP             0       ****    0 ROOT    
