@<TRIPOS>MOLECULE
3R136
137   139    1
SMALL
USER_CHARGES


@<TRIPOS>ATOM
      1 CA         30.0083   18.3591    3.9837 C.3       0 UNK        -0.1979 
      2 C          30.1668   19.6256    3.1551 C.2       0 UNK         0.4864 
      3 O          31.1970   19.8044    2.5034 O.2       0 UNK        -0.5359 
      4 N          29.1591   20.5070    3.1828 N.am      1 UNK        -0.4318 
      5 CA         29.1182   21.7575    2.4188 C.3       1 UNK         0.0824 
      6 C6         27.9943   22.6979    2.9176 C.3       12 UNK        -0.0944 
      7 S7         28.3264   23.3024    4.6045 S.3       12 UNK        -0.2672 
      8 C8         28.8518   25.0180    4.2780 C.3       12 UNK         0.0333 
      9 C9         30.0483   25.1026    3.3364 C.ar      12 UNK        -0.0807 
     10 C10        31.2591   24.4932    3.6756 C.ar      12 UNK        -0.0894 
     11 C11        32.3545   24.5673    2.8124 C.ar      12 UNK        -0.0804 
     12 C12        32.2444   25.2939    1.6237 C.ar      12 UNK        -0.0824 
     13 C13        31.0466   25.9247    1.2714 C.ar      12 UNK        -0.0762 
     14 C14        29.9431   25.7991    2.1279 C.ar      12 UNK        -0.0782 
     15 C15        31.0283   26.7543   -0.0177 C.3       12 UNK         0.0230 
     16 S16        29.3961   27.3263   -0.6067 S.3       12 UNK        -0.2608 
     17 C17        29.0810   28.7528    0.4904 C.3       12 UNK        -0.0989 
     18 CA         27.6317   29.2972    0.3826 C.3       5 UNK         0.0716 
     19 N          26.6360   28.2394    0.5663 N.am      5 UNK        -0.4135 
     20 C          25.3225   28.3364    0.3323 C.2       4 UNK         0.5031 
     21 O          24.7689   29.3637   -0.0659 O.2       4 UNK        -0.5229 
     22 CA         24.5101   27.0366    0.5180 C.3       4 UNK         0.0329 
     23 CB         22.9923   27.2587    0.3783 C.3       4 UNK        -0.2001 
     24 N          24.9335   26.0135   -0.4441 N.am      4 UNK        -0.4303 
     25 C          26.0630   25.3005   -0.3526 C.2       3 UNK         0.5044 
     26 O          26.8155   25.3469    0.6264 O.2       3 UNK        -0.5152 
     27 CA         26.4421   24.4447   -1.5694 C.3       3 UNK         0.0319 
     28 CB         26.6187   25.3170   -2.8314 C.3       3 UNK        -0.2001 
     29 N          27.6888   23.7562   -1.2541 N.am      3 UNK        -0.4354 
     30 C          28.2534   22.7511   -1.9314 C.2       2 UNK         0.4964 
     31 O          27.7751   22.2493   -2.9493 O.2       2 UNK        -0.5047 
     32 CA         29.5821   22.2102   -1.3743 C.3       2 UNK         0.0288 
     33 CB         30.7684   22.9826   -1.9740 C.3       2 UNK        -0.2113 
     34 N          29.6559   22.2749    0.0880 N.am      2 UNK        -0.4145 
     35 C          28.9560   21.4836    0.9127 C.2       1 UNK         0.5006 
     36 O          28.1888   20.5954    0.5303 O.2       1 UNK        -0.5103 
     37 C          27.4213   30.4522    1.3828 C.2       5 UNK         0.5055 
     38 O          26.9558   30.2216    2.5028 O.2       5 UNK        -0.5220 
     39 N          27.8157   31.6662    0.9753 N.am      6 UNK        -0.4450 
     40 CA         27.8814   32.8500    1.8374 C.3       6 UNK         0.0367 
     41 CB         28.1547   34.0871    0.9667 C.3       6 UNK        -0.1929 
     42 C          28.9801   32.7003    2.9022 C.2       6 UNK         0.5070 
     43 O          29.9554   31.9848    2.6685 O.2       6 UNK        -0.5237 
     44 N          28.8390   33.4107    4.0285 N.am      7 UNK        -0.4739 
     45 CA         29.7237   33.3292    5.2018 C.3       7 UNK         0.0276 
     46 CB         29.1921   34.2670    6.2978 C.3       7 UNK        -0.1927 
     47 C          31.2160   33.6119    4.9339 C.2       7 UNK         0.5013 
     48 O          32.0629   33.1117    5.6736 O.2       7 UNK        -0.5193 
     49 N          31.5121   34.3892    3.8837 N.am      8 UNK        -0.4253 
     50 CA         32.8706   34.6641    3.4102 C.3       8 UNK         0.0242 
     51 CB         32.8494   35.9378    2.5488 C.3       8 UNK        -0.2000 
     52 C          33.4958   33.4966    2.6203 C.2       8 UNK         0.4948 
     53 O          34.7227   33.4358    2.5278 O.2       8 UNK        -0.5275 
     54 N          32.6620   32.6173    2.0478 N.am      9 UNK        -0.4246 
     55 CA         33.0723   31.4810    1.2190 C.3       9 UNK         0.0261 
     56 CB         32.2395   31.4824   -0.0742 C.3       9 UNK        -0.1959 
     57 C          32.9181   30.1389    1.9518 C.2       9 UNK         0.5033 
     58 O          33.7063   29.2276    1.6958 O.2       9 UNK        -0.5390 
     59 N          31.9096   30.0287    2.8276 N.am      10 UNK        -0.4215 
     60 CA         31.6144   28.8469    3.6370 C.3       10 UNK         0.0240 
     61 CB         30.2840   29.0624    4.3785 C.3       10 UNK        -0.1982 
     62 C          32.7315   28.5179    4.6395 C.2       10 UNK         0.4970 
     63 O          33.3506   29.4294    5.1930 O.2       10 UNK        -0.4916 
     64 N          32.9316   27.2184    4.8833 N.am      11 UNK        -0.4279 
     65 CA         33.9170   26.6909    5.8413 C.3       11 UNK         0.1003 
     66 C          33.5352   26.8797    7.3393 C.2       11 UNK         0.5709 
     67 N          32.3079   27.2609    7.6746 N.am      11 UNK        -0.7358 
     68 O          34.3740   26.6813    8.2151 O.2       11 UNK        -0.4999 
     69 C69        34.2716   25.2100    5.5468 C.3       12 UNK        -0.0954 
     70 S70        34.9046   24.9537    3.8543 S.3       12 UNK        -0.2268 
     71 C71        33.6504   23.8419    3.1453 C.3       12 UNK         0.0203 
     72 H72        30.0543   17.4815    3.3395 H         1 UNK         0.0888 
     73 H73        30.8115   18.2873    4.7166 H         1 UNK         0.0888 
     74 H74        29.0588   18.3379    4.5185 H         1 UNK         0.0888 
     75 H75        28.3343   20.3043    3.7287 H         1 UNK         0.3017 
     76 H76        30.0790   22.2549    2.5610 H         1 UNK         0.0873 
     77 H77        27.8779   23.5568    2.2550 H         1 UNK         0.0745 
     78 H78        27.0301   22.1861    2.9130 H         1 UNK         0.0745 
     79 H79        29.1117   25.4930    5.2248 H         1 UNK         0.0705 
     80 H80        28.0015   25.5740    3.8790 H         1 UNK         0.0705 
     81 H81        31.3354   23.9372    4.6004 H         1 UNK         0.1334 
     82 H82        33.1032   25.3724    0.9702 H         1 UNK         0.1417 
     83 H83        28.9979   26.2547    1.8754 H         1 UNK         0.1562 
     84 H84        31.4755   26.1641   -0.8183 H         1 UNK         0.0748 
     85 H85        31.6761   27.6223    0.1152 H         1 UNK         0.0748 
     86 H86        29.7984   29.5333    0.2344 H         1 UNK         0.0940 
     87 H87        29.3076   28.4698    1.5177 H         1 UNK         0.0940 
     88 H88        27.4898   29.6935   -0.6253 H         1 UNK         0.0703 
     89 H89        26.9932   27.3273    0.8288 H         1 UNK         0.3081 
     90 H90        24.7006   26.6734    1.5305 H         1 UNK         0.0719 
     91 H91        22.7235   27.6110   -0.6184 H         1 UNK         0.0809 
     92 H92        22.4379   26.3399    0.5704 H         1 UNK         0.0809 
     93 H93        22.6402   28.0033    1.0935 H         1 UNK         0.0809 
     94 H94        24.3832   25.9394   -1.2877 H         1 UNK         0.2990 
     95 H95        25.6566   23.7041   -1.7305 H         1 UNK         0.0690 
     96 H96        26.9064   24.7204   -3.6968 H         1 UNK         0.0788 
     97 H97        27.3848   26.0798   -2.6858 H         1 UNK         0.0788 
     98 H98        25.6941   25.8293   -3.0983 H         1 UNK         0.0788 
     99 H99        28.1239   24.0959   -0.4046 H         1 UNK         0.2993 
    100 H100       29.6657   21.1634   -1.6755 H         1 UNK         0.0949 
    101 H101       30.7647   22.9170   -3.0629 H         1 UNK         0.0767 
    102 H102       30.7339   24.0404   -1.7121 H         1 UNK         0.0767 
    103 H103       31.7212   22.5803   -1.6290 H         1 UNK         0.0767 
    104 H104       30.2649   22.9786    0.4814 H         1 UNK         0.3013 
    105 H105       28.2098   31.7647    0.0512 H         1 UNK         0.3121 
    106 H106       26.9181   32.9679    2.3382 H         1 UNK         0.0774 
    107 H107       28.1734   34.9961    1.5695 H         1 UNK         0.0815 
    108 H108       29.1151   34.0170    0.4536 H         1 UNK         0.0815 
    109 H109       27.3797   34.2200    0.2117 H         1 UNK         0.0815 
    110 H110       28.0220   33.9972    4.1270 H         1 UNK         0.2987 
    111 H111       29.6639   32.3044    5.5745 H         1 UNK         0.0949 
    112 H112       29.1870   35.3075    5.9708 H         1 UNK         0.0806 
    113 H113       28.1766   34.0008    6.5919 H         1 UNK         0.0806 
    114 H114       29.8104   34.2108    7.1951 H         1 UNK         0.0806 
    115 H115       30.7489   34.7681    3.3424 H         1 UNK         0.3010 
    116 H116       33.5088   34.8505    4.2770 H         1 UNK         0.0829 
    117 H117       32.4774   36.7932    3.1132 H         1 UNK         0.0813 
    118 H118       33.8526   36.1920    2.2035 H         1 UNK         0.0813 
    119 H119       32.2217   35.8183    1.6647 H         1 UNK         0.0813 
    120 H120       31.6660   32.6986    2.2287 H         1 UNK         0.3038 
    121 H121       34.1236   31.5773    0.9394 H         1 UNK         0.0769 
    122 H122       32.4686   30.6127   -0.6918 H         1 UNK         0.0811 
    123 H123       32.4473   32.3689   -0.6734 H         1 UNK         0.0811 
    124 H124       31.1697   31.4668    0.1341 H         1 UNK         0.0811 
    125 H125       31.2668   30.8125    2.9250 H         1 UNK         0.3204 
    126 H126       31.5047   28.0083    2.9514 H         1 UNK         0.0748 
    127 H127       29.9852   28.1629    4.9179 H         1 UNK         0.0771 
    128 H128       30.3592   29.8722    5.1054 H         1 UNK         0.0771 
    129 H129       29.4737   29.3111    3.6939 H         1 UNK         0.0771 
    130 H130       32.3979   26.5277    4.3746 H         1 UNK         0.2980 
    131 H131       34.8326   27.2693    5.7026 H         1 UNK         0.0545 
    132 H132       32.0792   27.3822    8.6485 H         1 UNK         0.3459 
    133 H133       31.6136   27.4327    6.9670 H         1 UNK         0.3459 
    134 H134       35.0474   24.8627    6.2317 H         1 UNK         0.0616 
    135 H135       33.4080   24.5678    5.7242 H         1 UNK         0.0616 
    136 H136       34.0566   23.3966    2.2360 H         1 UNK         0.0634 
    137 H137       33.4662   23.0117    3.8292 H         1 UNK         0.0634 
@<TRIPOS>BOND
     1    1    2 1    
     2    1   72 1    
     3    1   73 1    
     4    1   74 1    
     5    2    3 2    
     6    2    4 am   BACKBONE|DICT|INTERRES
     7    4    5 1    
     8    4   75 1    
     9    5    6 1    
    10    5   35 1    
    11    5   76 1    
    12    6    7 1    
    13    6   77 1    
    14    6   78 1    
    15    7    8 1    
    16    8    9 1    
    17    8   79 1    
    18    8   80 1    
    19    9   10 ar   
    20    9   14 ar   
    21   10   11 ar   
    22   10   81 1    
    23   11   12 ar   
    24   11   71 1    
    25   12   13 ar   
    26   12   82 1    
    27   13   14 ar   
    28   13   15 1    
    29   14   83 1    
    30   15   16 1    
    31   15   84 1    
    32   15   85 1    
    33   16   17 1    
    34   17   18 1    
    35   17   86 1    
    36   17   87 1    
    37   18   19 1    
    38   18   37 1    
    39   18   88 1    
    40   19   20 am   BACKBONE|DICT|INTERRES
    41   19   89 1    
    42   20   21 2    
    43   20   22 1    
    44   22   23 1    
    45   22   24 1    
    46   22   90 1    
    47   23   91 1    
    48   23   92 1    
    49   23   93 1    
    50   24   25 am   BACKBONE|DICT|INTERRES
    51   24   94 1    
    52   25   26 2    
    53   25   27 1    
    54   27   28 1    
    55   27   29 1    
    56   27   95 1    
    57   28   96 1    
    58   28   97 1    
    59   28   98 1    
    60   29   30 am   BACKBONE|DICT|INTERRES
    61   29   99 1    
    62   30   31 2    
    63   30   32 1    
    64   32   33 1    
    65   32   34 1    
    66   32  100 1    
    67   33  101 1    
    68   33  102 1    
    69   33  103 1    
    70   34   35 am   BACKBONE|DICT|INTERRES
    71   34  104 1    
    72   35   36 2    
    73   37   38 2    
    74   37   39 am   BACKBONE|DICT|INTERRES
    75   39   40 1    
    76   39  105 1    
    77   40   41 1    
    78   40   42 1    
    79   40  106 1    
    80   41  107 1    
    81   41  108 1    
    82   41  109 1    
    83   42   43 2    
    84   42   44 am   BACKBONE|DICT|INTERRES
    85   44   45 1    
    86   44  110 1    
    87   45   46 1    
    88   45   47 1    
    89   45  111 1    
    90   46  112 1    
    91   46  113 1    
    92   46  114 1    
    93   47   48 2    
    94   47   49 am   BACKBONE|DICT|INTERRES
    95   49   50 1    
    96   49  115 1    
    97   50   51 1    
    98   50   52 1    
    99   50  116 1    
   100   51  117 1    
   101   51  118 1    
   102   51  119 1    
   103   52   53 2    
   104   52   54 am   BACKBONE|DICT|INTERRES
   105   54   55 1    
   106   54  120 1    
   107   55   56 1    
   108   55   57 1    
   109   55  121 1    
   110   56  122 1    
   111   56  123 1    
   112   56  124 1    
   113   57   58 2    
   114   57   59 am   BACKBONE|DICT|INTERRES
   115   59   60 1    
   116   59  125 1    
   117   60   61 1    
   118   60   62 1    
   119   60  126 1    
   120   61  127 1    
   121   61  128 1    
   122   61  129 1    
   123   62   63 2    
   124   62   64 am   BACKBONE|DICT|INTERRES
   125   64   65 1    
   126   64  130 1    
   127   65   66 1    
   128   65   69 1    
   129   65  131 1    
   130   66   67 am   BACKBONE|DICT|INTERRES
   131   66   68 2    
   132   67  132 1    
   133   67  133 1    
   134   69   70 1    
   135   69  134 1    
   136   69  135 1    
   137   70   71 1    
   138   71  136 1    
   139   71  137 1    
@<TRIPOS>SUBSTRUCTURE
     1 UNK         1 GROUP             0       ****    0 ROOT    
