@<TRIPOS>MOLECULE
3R136
137   139    1
SMALL
USER_CHARGES


@<TRIPOS>ATOM
      1 CA         29.7964   23.5423   -4.8305 C.3       0 UNK        -0.1979 
      2 C          29.5354   23.5551   -3.3308 C.2       0 UNK         0.4864 
      3 O          28.8643   24.4634   -2.8390 O.2       0 UNK        -0.5359 
      4 N          30.0640   22.5564   -2.6076 N.am      1 UNK        -0.4318 
      5 CA         29.8990   22.3654   -1.1617 C.3       1 UNK         0.0824 
      6 C6         30.8073   21.2141   -0.6585 C.3       12 UNK        -0.0944 
      7 S7         30.8781   21.0549    1.1624 S.3       12 UNK        -0.2672 
      8 C8         32.5020   21.7763    1.5628 C.3       12 UNK         0.0333 
      9 C9         32.3756   23.2415    1.9510 C.ar      12 UNK        -0.0807 
     10 C10        32.1768   23.5895    3.2918 C.ar      12 UNK        -0.0894 
     11 C11        32.0785   24.9317    3.6697 C.ar      12 UNK        -0.0804 
     12 C12        32.1571   25.9271    2.6930 C.ar      12 UNK        -0.0824 
     13 C13        32.3570   25.5941    1.3501 C.ar      12 UNK        -0.0762 
     14 C14        32.4747   24.2485    0.9839 C.ar      12 UNK        -0.0782 
     15 C15        32.4463   26.7001    0.3060 C.3       12 UNK         0.0230 
     16 S16        31.1075   26.6282   -0.9301 S.3       12 UNK        -0.2608 
     17 C17        29.5956   26.5168    0.0880 C.3       12 UNK        -0.0989 
     18 CA         28.8701   27.8696    0.2873 C.3       5 UNK         0.0716 
     19 N          27.4231   27.6770    0.4429 N.am      5 UNK        -0.4135 
     20 C          26.5076   28.6571    0.3933 C.2       4 UNK         0.5031 
     21 O          26.7950   29.8395    0.2082 O.2       4 UNK        -0.5229 
     22 CA         25.0300   28.2751    0.6085 C.3       4 UNK         0.0329 
     23 CB         24.3008   28.1736   -0.7416 C.3       4 UNK        -0.2001 
     24 N          24.8402   27.0252    1.3505 N.am      4 UNK        -0.4303 
     25 C          25.1550   26.8415    2.6416 C.2       3 UNK         0.5044 
     26 O          25.6037   27.7284    3.3677 O.2       3 UNK        -0.5152 
     27 CA         24.9980   25.4113    3.1975 C.3       3 UNK         0.0319 
     28 CB         23.5918   25.2137    3.7867 C.3       3 UNK        -0.2001 
     29 N          25.2685   24.3546    2.2107 N.am      3 UNK        -0.4354 
     30 C          26.4209   24.2179    1.5400 C.2       2 UNK         0.4964 
     31 O          27.3876   24.9711    1.6883 O.2       2 UNK        -0.5047 
     32 CA         26.4864   23.1076    0.4848 C.3       2 UNK         0.0288 
     33 CB         25.5566   23.4423   -0.7013 C.3       2 UNK        -0.2113 
     34 N          27.8744   23.0213    0.0410 N.am      2 UNK        -0.4145 
     35 C          28.4125   22.1404   -0.8060 C.2       1 UNK         0.5006 
     36 O          27.7999   21.1948   -1.3078 O.2       1 UNK        -0.5103 
     37 C          29.4771   28.6847    1.4504 C.2       5 UNK         0.5055 
     38 O          30.4638   29.3922    1.2443 O.2       5 UNK        -0.5220 
     39 N          28.8400   28.6433    2.6329 N.am      6 UNK        -0.4450 
     40 CA         29.2062   29.4418    3.8051 C.3       6 UNK         0.0367 
     41 CB         28.3605   29.0028    5.0100 C.3       6 UNK        -0.1929 
     42 C          29.0943   30.9649    3.5896 C.2       6 UNK         0.5070 
     43 O          29.7452   31.7172    4.3125 O.2       6 UNK        -0.5237 
     44 N          28.3015   31.4023    2.5990 N.am      7 UNK        -0.4739 
     45 CA         28.2308   32.8023    2.1722 C.3       7 UNK         0.0276 
     46 CB         26.9226   33.0398    1.3997 C.3       7 UNK        -0.1927 
     47 C          29.4445   33.2257    1.3218 C.2       7 UNK         0.5013 
     48 O          29.7515   34.4177    1.2799 O.2       7 UNK        -0.5193 
     49 N          30.1068   32.2630    0.6609 N.am      8 UNK        -0.4253 
     50 CA         31.3221   32.4846   -0.1255 C.3       8 UNK         0.0242 
     51 CB         31.3927   31.4755   -1.2849 C.3       8 UNK        -0.2000 
     52 C          32.5742   32.3952    0.7595 C.2       8 UNK         0.4948 
     53 O          33.4430   33.2626    0.6586 O.2       8 UNK        -0.5275 
     54 N          32.6406   31.3688    1.6181 N.am      9 UNK        -0.4246 
     55 CA         33.7214   31.1543    2.5764 C.3       9 UNK         0.0261 
     56 CB         34.8737   30.3780    1.9089 C.3       9 UNK        -0.1959 
     57 C          33.1474   30.4025    3.7802 C.2       9 UNK         0.5033 
     58 O          32.8440   29.2149    3.6579 O.2       9 UNK        -0.5390 
     59 N          32.9795   31.1030    4.9093 N.am      10 UNK        -0.4215 
     60 CA         32.4305   30.5430    6.1460 C.3       10 UNK         0.0240 
     61 CB         32.0637   31.6854    7.1106 C.3       10 UNK        -0.1982 
     62 C          33.4137   29.5659    6.8095 C.2       10 UNK         0.4970 
     63 O          34.5691   29.9325    7.0400 O.2       10 UNK        -0.4916 
     64 N          32.9266   28.3616    7.1266 N.am      11 UNK        -0.4279 
     65 CA         33.6506   27.3524    7.9114 C.3       11 UNK         0.1003 
     66 C          33.6107   27.6713    9.4302 C.2       11 UNK         0.5709 
     67 N          34.5915   27.1892   10.1856 N.am      11 UNK        -0.7358 
     68 O          32.6891   28.3185    9.9348 O.2       11 UNK        -0.4999 
     69 C69        33.1201   25.9224    7.6239 C.3       12 UNK        -0.0954 
     70 S70        33.5483   25.3706    5.9411 S.3       12 UNK        -0.2268 
     71 C71        31.9206   25.3115    5.1336 C.3       12 UNK         0.0203 
     72 H72        28.8536   23.4887   -5.3744 H         1 UNK         0.0888 
     73 H73        30.3101   24.4559   -5.1290 H         1 UNK         0.0888 
     74 H74        30.4116   22.6938   -5.1317 H         1 UNK         0.0888 
     75 H75        30.5793   21.8297   -3.0849 H         1 UNK         0.3017 
     76 H76        30.2322   23.2903   -0.6855 H         1 UNK         0.0873 
     77 H77        31.8203   21.3493   -1.0419 H         1 UNK         0.0745 
     78 H78        30.4692   20.2591   -1.0661 H         1 UNK         0.0745 
     79 H79        33.2015   21.6559    0.7323 H         1 UNK         0.0705 
     80 H80        32.9317   21.2128    2.3944 H         1 UNK         0.0705 
     81 H81        32.1149   22.8157    4.0457 H         1 UNK         0.1334 
     82 H82        32.0724   26.9654    2.9819 H         1 UNK         0.1417 
     83 H83        32.6330   23.9888   -0.0544 H         1 UNK         0.1562 
     84 H84        33.4045   26.6254   -0.2101 H         1 UNK         0.0748 
     85 H85        32.4367   27.6829    0.7803 H         1 UNK         0.0748 
     86 H86        29.7854   26.0203    1.0408 H         1 UNK         0.0940 
     87 H87        28.9422   25.8345   -0.4590 H         1 UNK         0.0940 
     88 H88        29.0031   28.4646   -0.6190 H         1 UNK         0.0703 
     89 H89        27.1256   26.7357    0.6714 H         1 UNK         0.3081 
     90 H90        24.5703   29.0810    1.1854 H         1 UNK         0.0719 
     91 H91        23.2337   27.9958   -0.6059 H         1 UNK         0.0809 
     92 H92        24.4018   29.0999   -1.3099 H         1 UNK         0.0809 
     93 H93        24.7008   27.3670   -1.3579 H         1 UNK         0.0809 
     94 H94        24.4720   26.2388    0.8347 H         1 UNK         0.2990 
     95 H95        25.7253   25.2983    4.0050 H         1 UNK         0.0690 
     96 H96        23.3708   25.9785    4.5329 H         1 UNK         0.0788 
     97 H97        23.5006   24.2468    4.2821 H         1 UNK         0.0788 
     98 H98        22.8187   25.2734    3.0190 H         1 UNK         0.0788 
     99 H99        24.5189   23.7014    2.0305 H         1 UNK         0.2993 
    100 H100       26.1973   22.1607    0.9441 H         1 UNK         0.0949 
    101 H101       25.8548   24.3677   -1.1954 H         1 UNK         0.0767 
    102 H102       25.5622   22.6526   -1.4511 H         1 UNK         0.0767 
    103 H103       24.5213   23.5600   -0.3792 H         1 UNK         0.0767 
    104 H104       28.4542   23.7480    0.4432 H         1 UNK         0.3013 
    105 H105       28.0141   28.0663    2.7206 H         1 UNK         0.3121 
    106 H106       30.2502   29.2209    4.0275 H         1 UNK         0.0774 
    107 H107       27.3019   29.2127    4.8565 H         1 UNK         0.0815 
    108 H108       28.6673   29.5311    5.9128 H         1 UNK         0.0815 
    109 H109       28.4666   27.9364    5.2065 H         1 UNK         0.0815 
    110 H110       27.7926   30.7296    2.0381 H         1 UNK         0.2987 
    111 H111       28.2163   33.4368    3.0620 H         1 UNK         0.0949 
    112 H112       26.8935   32.4725    0.4687 H         1 UNK         0.0806 
    113 H113       26.0516   32.7599    1.9928 H         1 UNK         0.0806 
    114 H114       26.8114   34.0931    1.1394 H         1 UNK         0.0806 
    115 H115       29.8325   31.2977    0.8010 H         1 UNK         0.3010 
    116 H116       31.2898   33.4858   -0.5622 H         1 UNK         0.0829 
    117 H117       30.5192   31.5550   -1.9320 H         1 UNK         0.0813 
    118 H118       32.2719   31.6590   -1.9037 H         1 UNK         0.0813 
    119 H119       31.4557   30.4453   -0.9335 H         1 UNK         0.0813 
    120 H120       31.8931   30.6767    1.6307 H         1 UNK         0.3038 
    121 H121       34.1053   32.1181    2.9207 H         1 UNK         0.0769 
    122 H122       34.5356   29.4227    1.5032 H         1 UNK         0.0811 
    123 H123       35.6668   30.1677    2.6278 H         1 UNK         0.0811 
    124 H124       35.3179   30.9494    1.0923 H         1 UNK         0.0811 
    125 H125       33.2616   32.0729    4.9364 H         1 UNK         0.3204 
    126 H126       31.5108   30.0089    5.8963 H         1 UNK         0.0748 
    127 H127       32.9347   32.2863    7.3805 H         1 UNK         0.0771 
    128 H128       31.3191   32.3503    6.6715 H         1 UNK         0.0771 
    129 H129       31.6383   31.2916    8.0360 H         1 UNK         0.0771 
    130 H130       31.9595   28.1545    6.9296 H         1 UNK         0.2980 
    131 H131       34.7012   27.3840    7.6108 H         1 UNK         0.0545 
    132 H132       34.5791   27.3728   11.1763 H         1 UNK         0.3459 
    133 H133       35.3459   26.6474    9.7856 H         1 UNK         0.3459 
    134 H134       33.5653   25.1995    8.3106 H         1 UNK         0.0616 
    135 H135       32.0406   25.8653    7.7811 H         1 UNK         0.0616 
    136 H136       31.2822   24.5881    5.6451 H         1 UNK         0.0634 
    137 H137       31.4327   26.2847    5.2239 H         1 UNK         0.0634 
@<TRIPOS>BOND
     1    1    2 1    
     2    1   72 1    
     3    1   73 1    
     4    1   74 1    
     5    2    3 2    
     6    2    4 am   BACKBONE|DICT|INTERRES
     7    4    5 1    
     8    4   75 1    
     9    5    6 1    
    10    5   35 1    
    11    5   76 1    
    12    6    7 1    
    13    6   77 1    
    14    6   78 1    
    15    7    8 1    
    16    8    9 1    
    17    8   79 1    
    18    8   80 1    
    19    9   10 ar   
    20    9   14 ar   
    21   10   11 ar   
    22   10   81 1    
    23   11   12 ar   
    24   11   71 1    
    25   12   13 ar   
    26   12   82 1    
    27   13   14 ar   
    28   13   15 1    
    29   14   83 1    
    30   15   16 1    
    31   15   84 1    
    32   15   85 1    
    33   16   17 1    
    34   17   18 1    
    35   17   86 1    
    36   17   87 1    
    37   18   19 1    
    38   18   37 1    
    39   18   88 1    
    40   19   20 am   BACKBONE|DICT|INTERRES
    41   19   89 1    
    42   20   21 2    
    43   20   22 1    
    44   22   23 1    
    45   22   24 1    
    46   22   90 1    
    47   23   91 1    
    48   23   92 1    
    49   23   93 1    
    50   24   25 am   BACKBONE|DICT|INTERRES
    51   24   94 1    
    52   25   26 2    
    53   25   27 1    
    54   27   28 1    
    55   27   29 1    
    56   27   95 1    
    57   28   96 1    
    58   28   97 1    
    59   28   98 1    
    60   29   30 am   BACKBONE|DICT|INTERRES
    61   29   99 1    
    62   30   31 2    
    63   30   32 1    
    64   32   33 1    
    65   32   34 1    
    66   32  100 1    
    67   33  101 1    
    68   33  102 1    
    69   33  103 1    
    70   34   35 am   BACKBONE|DICT|INTERRES
    71   34  104 1    
    72   35   36 2    
    73   37   38 2    
    74   37   39 am   BACKBONE|DICT|INTERRES
    75   39   40 1    
    76   39  105 1    
    77   40   41 1    
    78   40   42 1    
    79   40  106 1    
    80   41  107 1    
    81   41  108 1    
    82   41  109 1    
    83   42   43 2    
    84   42   44 am   BACKBONE|DICT|INTERRES
    85   44   45 1    
    86   44  110 1    
    87   45   46 1    
    88   45   47 1    
    89   45  111 1    
    90   46  112 1    
    91   46  113 1    
    92   46  114 1    
    93   47   48 2    
    94   47   49 am   BACKBONE|DICT|INTERRES
    95   49   50 1    
    96   49  115 1    
    97   50   51 1    
    98   50   52 1    
    99   50  116 1    
   100   51  117 1    
   101   51  118 1    
   102   51  119 1    
   103   52   53 2    
   104   52   54 am   BACKBONE|DICT|INTERRES
   105   54   55 1    
   106   54  120 1    
   107   55   56 1    
   108   55   57 1    
   109   55  121 1    
   110   56  122 1    
   111   56  123 1    
   112   56  124 1    
   113   57   58 2    
   114   57   59 am   BACKBONE|DICT|INTERRES
   115   59   60 1    
   116   59  125 1    
   117   60   61 1    
   118   60   62 1    
   119   60  126 1    
   120   61  127 1    
   121   61  128 1    
   122   61  129 1    
   123   62   63 2    
   124   62   64 am   BACKBONE|DICT|INTERRES
   125   64   65 1    
   126   64  130 1    
   127   65   66 1    
   128   65   69 1    
   129   65  131 1    
   130   66   67 am   BACKBONE|DICT|INTERRES
   131   66   68 2    
   132   67  132 1    
   133   67  133 1    
   134   69   70 1    
   135   69  134 1    
   136   69  135 1    
   137   70   71 1    
   138   71  136 1    
   139   71  137 1    
@<TRIPOS>SUBSTRUCTURE
     1 UNK         1 GROUP             0       ****    0 ROOT    
