@<TRIPOS>MOLECULE
3R136
137   139    1
SMALL
USER_CHARGES


@<TRIPOS>ATOM
      1 CA         33.9537   25.6960   -2.8043 C.3       0 UNK        -0.1979 
      2 C          32.6935   26.2293   -2.1409 C.2       0 UNK         0.4864 
      3 O          32.2404   27.3259   -2.4724 O.2       0 UNK        -0.5359 
      4 N          32.1092   25.4604   -1.2133 N.am      1 UNK        -0.4318 
      5 CA         30.9081   25.7955   -0.4375 C.3       1 UNK         0.0824 
      6 C6         30.8769   25.0314    0.9126 C.3       12 UNK        -0.0944 
      7 S7         31.0224   23.2144    0.7467 S.3       12 UNK        -0.2672 
      8 C8         32.0217   22.7868    2.2079 C.3       12 UNK         0.0333 
      9 C9         31.3129   23.1690    3.4986 C.ar      12 UNK        -0.0807 
     10 C10        31.7539   24.2637    4.2463 C.ar      12 UNK        -0.0894 
     11 C11        31.0776   24.6482    5.4073 C.ar      12 UNK        -0.0804 
     12 C12        29.9621   23.9201    5.8307 C.ar      12 UNK        -0.0824 
     13 C13        29.5176   22.8176    5.0939 C.ar      12 UNK        -0.0762 
     14 C14        30.2013   22.4420    3.9336 C.ar      12 UNK        -0.0782 
     15 C15        28.2866   22.0411    5.5342 C.3       12 UNK         0.0230 
     16 S16        26.8423   22.4422    4.5007 S.3       12 UNK        -0.2608 
     17 C17        26.4890   24.1648    4.9968 C.3       12 UNK        -0.0989 
     18 CA         27.0595   25.2268    4.0122 C.3       5 UNK         0.0716 
     19 N          26.6824   25.0180    2.6041 N.am      5 UNK        -0.4135 
     20 C          25.4494   24.8841    2.0981 C.2       4 UNK         0.5031 
     21 O          24.4134   24.9943    2.7553 O.2       4 UNK        -0.5229 
     22 CA         25.3915   24.6276    0.5840 C.3       4 UNK         0.0329 
     23 CB         24.0039   24.1551    0.0985 C.3       4 UNK        -0.2001 
     24 N          25.8593   25.7917   -0.1777 N.am      4 UNK        -0.4303 
     25 C          25.2916   27.0077   -0.2551 C.2       3 UNK         0.5044 
     26 O          24.2723   27.3249    0.3572 O.2       3 UNK        -0.5152 
     27 CA         25.9657   28.0709   -1.1514 C.3       3 UNK         0.0319 
     28 CB         26.3711   29.3016   -0.3255 C.3       3 UNK        -0.2001 
     29 N          27.1447   27.5882   -1.8748 N.am      3 UNK        -0.4354 
     30 C          27.1272   26.7683   -2.9346 C.2       2 UNK         0.4964 
     31 O          26.0950   26.3978   -3.4940 O.2       2 UNK        -0.5047 
     32 CA         28.4862   26.2426   -3.4370 C.3       2 UNK         0.0288 
     33 CB         28.9272   27.0094   -4.6943 C.3       2 UNK        -0.2113 
     34 N          29.5756   26.2803   -2.4508 N.am      2 UNK        -0.4145 
     35 C          29.5997   25.6662   -1.2584 C.2       1 UNK         0.5006 
     36 O          28.6348   25.0469   -0.8036 O.2       1 UNK        -0.5103 
     37 C          26.8009   26.6605    4.5315 C.2       5 UNK         0.5055 
     38 O          27.2704   26.9898    5.6207 O.2       5 UNK        -0.5220 
     39 N          26.1056   27.5020    3.7546 N.am      6 UNK        -0.4450 
     40 CA         25.8256   28.9106    4.0546 C.3       6 UNK         0.0367 
     41 CB         24.3859   29.2258    3.6084 C.3       6 UNK        -0.1929 
     42 C          26.8448   29.8608    3.3921 C.2       6 UNK         0.5070 
     43 O          26.5387   31.0372    3.1890 O.2       6 UNK        -0.5237 
     44 N          28.0192   29.3341    3.0227 N.am      7 UNK        -0.4739 
     45 CA         29.0859   30.0550    2.3295 C.3       7 UNK         0.0276 
     46 CB         30.0263   29.0228    1.6881 C.3       7 UNK        -0.1927 
     47 C          29.8638   31.0000    3.2608 C.2       7 UNK         0.5013 
     48 O          29.8719   30.8060    4.4783 O.2       7 UNK        -0.5193 
     49 N          30.5216   31.9943    2.6515 N.am      8 UNK        -0.4253 
     50 CA         31.3921   32.9558    3.3251 C.3       8 UNK         0.0242 
     51 CB         31.2756   34.3284    2.6316 C.3       8 UNK        -0.2000 
     52 C          32.8306   32.4177    3.3635 C.2       8 UNK         0.4948 
     53 O          33.2007   31.7471    4.3270 O.2       8 UNK        -0.5275 
     54 N          33.6155   32.7009    2.3132 N.am      9 UNK        -0.4246 
     55 CA         35.0518   32.4063    2.2107 C.3       9 UNK         0.0261 
     56 CB         35.5883   32.9717    0.8850 C.3       9 UNK        -0.1959 
     57 C          35.4376   30.9218    2.3534 C.2       9 UNK         0.5033 
     58 O          36.5548   30.6348    2.7856 O.2       9 UNK        -0.5390 
     59 N          34.5189   30.0102    2.0055 N.am      10 UNK        -0.4215 
     60 CA         34.6926   28.5642    2.1685 C.3       10 UNK         0.0240 
     61 CB         33.7050   27.8215    1.2531 C.3       10 UNK        -0.1982 
     62 C          34.5439   28.0848    3.6261 C.2       10 UNK         0.4970 
     63 O          34.9977   26.9789    3.9236 O.2       10 UNK        -0.4916 
     64 N          33.9169   28.8925    4.4934 N.am      11 UNK        -0.4279 
     65 CA         33.6945   28.5860    5.9155 C.3       11 UNK         0.1003 
     66 C          34.4805   29.5309    6.8618 C.2       11 UNK         0.5709 
     67 N          34.7289   30.7814    6.4939 N.am      11 UNK        -0.7358 
     68 O          34.8867   29.1160    7.9445 O.2       11 UNK        -0.4999 
     69 C69        32.1870   28.5774    6.2835 C.3       12 UNK        -0.0954 
     70 S70        31.2175   27.3957    5.2904 S.3       12 UNK        -0.2268 
     71 C71        31.5581   25.8554    6.1932 C.3       12 UNK         0.0203 
     72 H72        34.2363   24.7179   -2.4151 H         1 UNK         0.0888 
     73 H73        33.8013   25.6032   -3.8792 H         1 UNK         0.0888 
     74 H74        34.7838   26.3811   -2.6348 H         1 UNK         0.0888 
     75 H75        32.4964   24.5492   -1.0099 H         1 UNK         0.3017 
     76 H76        30.9794   26.8552   -0.1862 H         1 UNK         0.0873 
     77 H77        29.9735   25.2637    1.4793 H         1 UNK         0.0745 
     78 H78        31.7015   25.3891    1.5304 H         1 UNK         0.0745 
     79 H79        32.2156   21.7133    2.2042 H         1 UNK         0.0705 
     80 H80        32.9948   23.2753    2.1362 H         1 UNK         0.0705 
     81 H81        32.6115   24.8354    3.9163 H         1 UNK         0.1334 
     82 H82        29.4318   24.2207    6.7241 H         1 UNK         0.1417 
     83 H83        29.8503   21.6002    3.3519 H         1 UNK         0.1562 
     84 H84        28.0545   22.2334    6.5829 H         1 UNK         0.0748 
     85 H85        28.4880   20.9715    5.4587 H         1 UNK         0.0748 
     86 H86        26.8817   24.3268    6.0024 H         1 UNK         0.0940 
     87 H87        25.4069   24.2713    5.0882 H         1 UNK         0.0940 
     88 H88        28.1450   25.1230    4.0188 H         1 UNK         0.0703 
     89 H89        27.4589   24.9227    1.9645 H         1 UNK         0.3081 
     90 H90        26.0965   23.8210    0.3744 H         1 UNK         0.0719 
     91 H91        24.0090   23.9469   -0.9713 H         1 UNK         0.0809 
     92 H92        23.2256   24.8936    0.2924 H         1 UNK         0.0809 
     93 H93        23.7090   23.2367    0.6074 H         1 UNK         0.0809 
     94 H94        26.7375   25.6484   -0.6677 H         1 UNK         0.2990 
     95 H95        25.2203   28.3857   -1.8847 H         1 UNK         0.0690 
     96 H96        26.7804   30.0899   -0.9574 H         1 UNK         0.0788 
     97 H97        27.1206   29.0432    0.4197 H         1 UNK         0.0788 
     98 H98        25.5163   29.7252    0.2038 H         1 UNK         0.0788 
     99 H99        28.0436   27.8501   -1.4992 H         1 UNK         0.2993 
    100 H100       28.3362   25.1957   -3.7091 H         1 UNK         0.0949 
    101 H101       28.1552   26.9775   -5.4648 H         1 UNK         0.0767 
    102 H102       29.1280   28.0591   -4.4756 H         1 UNK         0.0767 
    103 H103       29.8307   26.5778   -5.1259 H         1 UNK         0.0767 
    104 H104       30.4195   26.7816   -2.7188 H         1 UNK         0.3013 
    105 H105       25.7294   27.1471    2.8863 H         1 UNK         0.3121 
    106 H106       25.8874   29.0789    5.1318 H         1 UNK         0.0774 
    107 H107       24.0998   30.2409    3.8867 H         1 UNK         0.0815 
    108 H108       24.2711   29.1385    2.5272 H         1 UNK         0.0815 
    109 H109       23.6688   28.5510    4.0763 H         1 UNK         0.0815 
    110 H110       28.2205   28.3861    3.3030 H         1 UNK         0.2987 
    111 H111       28.6324   30.6564    1.5381 H         1 UNK         0.0949 
    112 H112       30.5079   28.4002    2.4434 H         1 UNK         0.0806 
    113 H113       29.4850   28.3660    1.0078 H         1 UNK         0.0806 
    114 H114       30.8118   29.5104    1.1094 H         1 UNK         0.0806 
    115 H115       30.4645   32.0673    1.6456 H         1 UNK         0.3010 
    116 H116       31.0701   33.0834    4.3614 H         1 UNK         0.0829 
    117 H117       30.2749   34.7422    2.7590 H         1 UNK         0.0813 
    118 H118       31.9738   35.0471    3.0637 H         1 UNK         0.0813 
    119 H119       31.4721   34.2769    1.5601 H         1 UNK         0.0813 
    120 H120       33.2200   33.2486    1.5626 H         1 UNK         0.3038 
    121 H121       35.5438   32.9378    3.0283 H         1 UNK         0.0769 
    122 H122       36.6607   32.7941    0.7893 H         1 UNK         0.0811 
    123 H123       35.4359   34.0492    0.8205 H         1 UNK         0.0811 
    124 H124       35.1039   32.5100    0.0234 H         1 UNK         0.0811 
    125 H125       33.6321   30.3347    1.6500 H         1 UNK         0.3204 
    126 H126       35.7036   28.3058    1.8455 H         1 UNK         0.0748 
    127 H127       33.8924   26.7470    1.2715 H         1 UNK         0.0771 
    128 H128       32.6742   27.9731    1.5671 H         1 UNK         0.0771 
    129 H129       33.7960   28.1463    0.2164 H         1 UNK         0.0771 
    130 H130       33.6081   29.8110    4.1957 H         1 UNK         0.2980 
    131 H131       34.0791   27.5885    6.1315 H         1 UNK         0.0545 
    132 H132       34.3066   31.1621    5.6510 H         1 UNK         0.3459 
    133 H133       35.2488   31.3831    7.1117 H         1 UNK         0.3459 
    134 H134       32.0450   28.3407    7.3396 H         1 UNK         0.0616 
    135 H135       31.7576   29.5696    6.1328 H         1 UNK         0.0616 
    136 H136       31.0814   25.9008    7.1736 H         1 UNK         0.0634 
    137 H137       32.6296   25.7580    6.3699 H         1 UNK         0.0634 
@<TRIPOS>BOND
     1    1    2 1    
     2    1   72 1    
     3    1   73 1    
     4    1   74 1    
     5    2    3 2    
     6    2    4 am   BACKBONE|DICT|INTERRES
     7    4    5 1    
     8    4   75 1    
     9    5    6 1    
    10    5   35 1    
    11    5   76 1    
    12    6    7 1    
    13    6   77 1    
    14    6   78 1    
    15    7    8 1    
    16    8    9 1    
    17    8   79 1    
    18    8   80 1    
    19    9   10 ar   
    20    9   14 ar   
    21   10   11 ar   
    22   10   81 1    
    23   11   12 ar   
    24   11   71 1    
    25   12   13 ar   
    26   12   82 1    
    27   13   14 ar   
    28   13   15 1    
    29   14   83 1    
    30   15   16 1    
    31   15   84 1    
    32   15   85 1    
    33   16   17 1    
    34   17   18 1    
    35   17   86 1    
    36   17   87 1    
    37   18   19 1    
    38   18   37 1    
    39   18   88 1    
    40   19   20 am   BACKBONE|DICT|INTERRES
    41   19   89 1    
    42   20   21 2    
    43   20   22 1    
    44   22   23 1    
    45   22   24 1    
    46   22   90 1    
    47   23   91 1    
    48   23   92 1    
    49   23   93 1    
    50   24   25 am   BACKBONE|DICT|INTERRES
    51   24   94 1    
    52   25   26 2    
    53   25   27 1    
    54   27   28 1    
    55   27   29 1    
    56   27   95 1    
    57   28   96 1    
    58   28   97 1    
    59   28   98 1    
    60   29   30 am   BACKBONE|DICT|INTERRES
    61   29   99 1    
    62   30   31 2    
    63   30   32 1    
    64   32   33 1    
    65   32   34 1    
    66   32  100 1    
    67   33  101 1    
    68   33  102 1    
    69   33  103 1    
    70   34   35 am   BACKBONE|DICT|INTERRES
    71   34  104 1    
    72   35   36 2    
    73   37   38 2    
    74   37   39 am   BACKBONE|DICT|INTERRES
    75   39   40 1    
    76   39  105 1    
    77   40   41 1    
    78   40   42 1    
    79   40  106 1    
    80   41  107 1    
    81   41  108 1    
    82   41  109 1    
    83   42   43 2    
    84   42   44 am   BACKBONE|DICT|INTERRES
    85   44   45 1    
    86   44  110 1    
    87   45   46 1    
    88   45   47 1    
    89   45  111 1    
    90   46  112 1    
    91   46  113 1    
    92   46  114 1    
    93   47   48 2    
    94   47   49 am   BACKBONE|DICT|INTERRES
    95   49   50 1    
    96   49  115 1    
    97   50   51 1    
    98   50   52 1    
    99   50  116 1    
   100   51  117 1    
   101   51  118 1    
   102   51  119 1    
   103   52   53 2    
   104   52   54 am   BACKBONE|DICT|INTERRES
   105   54   55 1    
   106   54  120 1    
   107   55   56 1    
   108   55   57 1    
   109   55  121 1    
   110   56  122 1    
   111   56  123 1    
   112   56  124 1    
   113   57   58 2    
   114   57   59 am   BACKBONE|DICT|INTERRES
   115   59   60 1    
   116   59  125 1    
   117   60   61 1    
   118   60   62 1    
   119   60  126 1    
   120   61  127 1    
   121   61  128 1    
   122   61  129 1    
   123   62   63 2    
   124   62   64 am   BACKBONE|DICT|INTERRES
   125   64   65 1    
   126   64  130 1    
   127   65   66 1    
   128   65   69 1    
   129   65  131 1    
   130   66   67 am   BACKBONE|DICT|INTERRES
   131   66   68 2    
   132   67  132 1    
   133   67  133 1    
   134   69   70 1    
   135   69  134 1    
   136   69  135 1    
   137   70   71 1    
   138   71  136 1    
   139   71  137 1    
@<TRIPOS>SUBSTRUCTURE
     1 UNK         1 GROUP             0       ****    0 ROOT    
